* NGSPICE file created from new_adder_4bit.ext - technology: sky130A

.subckt new_adder_4bit A0 A2 B0 B2 CIN GND S1 S3 VDD S0 A1 B1 S2 COUT B3 A3
X0 VDD.t26 a_114_247# x2.CIN VDD.t25 sky130_fd_pr__pfet_01v8_hvt ad=0.14785 pd=1.345 as=0.26 ps=2.52 w=1 l=0.15
X1 a_246_95# A0.t3 GND.t75 GND.t74 sky130_fd_pr__nfet_01v8 ad=0.063 pd=0.72 as=0.10235 ps=0.995 w=0.42 l=0.15
X2 VDD.t37 A2.t4 a_1201_n819# VDD.t36 sky130_fd_pr__pfet_01v8_hvt ad=0.14785 pd=1.345 as=0.0693 ps=0.75 w=0.42 l=0.15
X3 GND.t62 B1.t5 a_908_n179# GND.t61 sky130_fd_pr__nfet_01v8 ad=0.0567 pd=0.69 as=0.1092 ps=1.36 w=0.42 l=0.15
X4 GND.t34 CIN.t1 a_776_95# GND.t33 sky130_fd_pr__nfet_01v8 ad=0.0567 pd=0.69 as=0.0567 ps=0.69 w=0.42 l=0.15
X5 S0.t0 a_1033_95# VDD.t29 VDD.t28 sky130_fd_pr__pfet_01v8_hvt ad=0.26 pd=2.52 as=0.14785 ps=1.345 w=1 l=0.15
X6 a_1033_n1185# a_114_n1033# a_776_n1185# GND.t19 sky130_fd_pr__nfet_01v8 ad=0.0693 pd=0.75 as=0.06195 ps=0.715 w=0.42 l=0.15
X7 a_776_n819# A2.t5 VDD.t39 VDD.t38 sky130_fd_pr__pfet_01v8_hvt ad=0.06195 pd=0.715 as=0.0567 ps=0.69 w=0.42 l=0.15
X8 a_377_n1459# B3.t7 a_281_n1459# GND.t64 sky130_fd_pr__nfet_01v8 ad=0.0441 pd=0.63 as=0.0693 ps=0.75 w=0.42 l=0.15
X9 a_1129_n1185# x3.CIN a_1033_n1185# GND.t11 sky130_fd_pr__nfet_01v8 ad=0.0441 pd=0.63 as=0.0693 ps=0.75 w=0.42 l=0.15
X10 a_152_n1851# x4.CIN a_377_n1459# GND.t4 sky130_fd_pr__nfet_01v8 ad=0.0693 pd=0.75 as=0.0441 ps=0.63 w=0.42 l=0.15
X11 a_1129_n819# x3.CIN a_1033_n1185# VDD.t11 sky130_fd_pr__pfet_01v8_hvt ad=0.0441 pd=0.63 as=0.0693 ps=0.75 w=0.42 l=0.15
X12 GND.t68 B3.t5 a_908_n1459# GND.t67 sky130_fd_pr__nfet_01v8 ad=0.0567 pd=0.69 as=0.1092 ps=1.36 w=0.42 l=0.15
X13 a_545_n179# x2.CIN GND.t2 GND.t1 sky130_fd_pr__nfet_01v8 ad=0.0567 pd=0.69 as=0.0567 ps=0.69 w=0.42 l=0.15
X14 a_908_n1459# A3.t5 GND.t87 GND.t86 sky130_fd_pr__nfet_01v8 ad=0.0567 pd=0.69 as=0.0567 ps=0.69 w=0.42 l=0.15
X15 a_776_n819# B2.t5 VDD.t82 VDD.t81 sky130_fd_pr__pfet_01v8_hvt ad=0.0567 pd=0.69 as=0.1092 ps=1.36 w=0.42 l=0.15
X16 a_420_n819# x3.CIN a_114_n1033# VDD.t8 sky130_fd_pr__pfet_01v8_hvt ad=0.0567 pd=0.69 as=0.0567 ps=0.69 w=0.42 l=0.15
X17 a_1129_95# CIN.t0 a_1033_95# GND.t35 sky130_fd_pr__nfet_01v8 ad=0.0441 pd=0.63 as=0.0693 ps=0.75 w=0.42 l=0.15
X18 a_545_n1459# a_491_n1569# a_152_n1851# GND.t20 sky130_fd_pr__nfet_01v8 ad=0.06195 pd=0.715 as=0.0693 ps=0.75 w=0.42 l=0.15
X19 x3.CIN a_491_n289# GND.t14 GND.t13 sky130_fd_pr__nfet_01v8 ad=0.169 pd=1.82 as=0.10235 ps=0.995 w=0.65 l=0.15
X20 GND.t77 A0.t0 a_1201_95# GND.t76 sky130_fd_pr__nfet_01v8 ad=0.10235 pd=0.995 as=0.0693 ps=0.75 w=0.42 l=0.15
X21 a_114_247# B0.t7 a_246_461# VDD.t44 sky130_fd_pr__pfet_01v8_hvt ad=0.0567 pd=0.69 as=0.063 ps=0.72 w=0.42 l=0.15
X22 GND.t39 A2.t0 a_1201_n1185# GND.t38 sky130_fd_pr__nfet_01v8 ad=0.10235 pd=0.995 as=0.0693 ps=0.75 w=0.42 l=0.15
X23 a_1201_461# B0.t4 a_1129_461# VDD.t49 sky130_fd_pr__pfet_01v8_hvt ad=0.0693 pd=0.75 as=0.0441 ps=0.63 w=0.42 l=0.15
X24 GND.t26 a_114_247# x2.CIN GND.t25 sky130_fd_pr__nfet_01v8 ad=0.10235 pd=0.995 as=0.169 ps=1.82 w=0.65 l=0.15
X25 VDD.t62 B1.t1 a_908_n545# VDD.t61 sky130_fd_pr__pfet_01v8_hvt ad=0.0567 pd=0.69 as=0.1092 ps=1.36 w=0.42 l=0.15
X26 a_545_n179# a_491_n289# a_152_n571# GND.t12 sky130_fd_pr__nfet_01v8 ad=0.06195 pd=0.715 as=0.0693 ps=0.75 w=0.42 l=0.15
X27 VDD.t77 A0.t4 a_1201_461# VDD.t76 sky130_fd_pr__pfet_01v8_hvt ad=0.14785 pd=1.345 as=0.0693 ps=0.75 w=0.42 l=0.15
X28 a_246_n819# A2.t7 VDD.t43 VDD.t42 sky130_fd_pr__pfet_01v8_hvt ad=0.063 pd=0.72 as=0.14785 ps=1.345 w=0.42 l=0.15
X29 a_246_461# A0.t7 VDD.t75 VDD.t74 sky130_fd_pr__pfet_01v8_hvt ad=0.063 pd=0.72 as=0.14785 ps=1.345 w=0.42 l=0.15
X30 a_377_n1825# B3.t3 a_281_n1825# VDD.t64 sky130_fd_pr__pfet_01v8_hvt ad=0.0441 pd=0.63 as=0.0693 ps=0.75 w=0.42 l=0.15
X31 a_1242_n179# B1.t4 a_491_n289# GND.t63 sky130_fd_pr__nfet_01v8 ad=0.063 pd=0.72 as=0.0567 ps=0.69 w=0.42 l=0.15
X32 a_776_95# B0.t1 GND.t48 GND.t47 sky130_fd_pr__nfet_01v8 ad=0.0567 pd=0.69 as=0.1092 ps=1.36 w=0.42 l=0.15
X33 a_1242_n1459# B3.t4 a_491_n1569# GND.t69 sky130_fd_pr__nfet_01v8 ad=0.063 pd=0.72 as=0.0567 ps=0.69 w=0.42 l=0.15
X34 a_152_n1851# x4.CIN a_377_n1825# VDD.t4 sky130_fd_pr__pfet_01v8_hvt ad=0.0693 pd=0.75 as=0.0441 ps=0.63 w=0.42 l=0.15
X35 a_776_95# A0.t1 GND.t73 GND.t72 sky130_fd_pr__nfet_01v8 ad=0.06195 pd=0.715 as=0.0567 ps=0.69 w=0.42 l=0.15
X36 a_114_n1033# B2.t7 a_246_n819# VDD.t78 sky130_fd_pr__pfet_01v8_hvt ad=0.0567 pd=0.69 as=0.063 ps=0.72 w=0.42 l=0.15
X37 a_377_n179# B1.t7 a_281_n179# GND.t58 sky130_fd_pr__nfet_01v8 ad=0.0441 pd=0.63 as=0.0693 ps=0.75 w=0.42 l=0.15
X38 VDD.t68 B3.t1 a_908_n1825# VDD.t67 sky130_fd_pr__pfet_01v8_hvt ad=0.0567 pd=0.69 as=0.1092 ps=1.36 w=0.42 l=0.15
X39 a_545_n545# x2.CIN VDD.t2 VDD.t1 sky130_fd_pr__pfet_01v8_hvt ad=0.0567 pd=0.69 as=0.0567 ps=0.69 w=0.42 l=0.15
X40 a_908_n1825# A3.t1 VDD.t89 VDD.t88 sky130_fd_pr__pfet_01v8_hvt ad=0.0567 pd=0.69 as=0.0567 ps=0.69 w=0.42 l=0.15
X41 GND.t51 A1.t4 a_1242_n179# GND.t50 sky130_fd_pr__nfet_01v8 ad=0.10235 pd=0.995 as=0.063 ps=0.72 w=0.42 l=0.15
X42 a_491_n1569# x4.CIN a_908_n1459# GND.t7 sky130_fd_pr__nfet_01v8 ad=0.0567 pd=0.69 as=0.0567 ps=0.69 w=0.42 l=0.15
X43 a_1033_n1185# a_114_n1033# a_776_n819# VDD.t19 sky130_fd_pr__pfet_01v8_hvt ad=0.0693 pd=0.75 as=0.06195 ps=0.715 w=0.42 l=0.15
X44 a_908_n179# A1.t5 GND.t53 GND.t52 sky130_fd_pr__nfet_01v8 ad=0.0567 pd=0.69 as=0.0567 ps=0.69 w=0.42 l=0.15
X45 GND.t24 a_152_n1851# S3.t0 GND.t23 sky130_fd_pr__nfet_01v8 ad=0.10235 pd=0.995 as=0.169 ps=1.82 w=0.65 l=0.15
X46 a_420_95# CIN.t2 a_114_247# GND.t32 sky130_fd_pr__nfet_01v8 ad=0.0567 pd=0.69 as=0.0567 ps=0.69 w=0.42 l=0.15
X47 a_545_n1825# a_491_n1569# a_152_n1851# VDD.t20 sky130_fd_pr__pfet_01v8_hvt ad=0.06195 pd=0.715 as=0.0693 ps=0.75 w=0.42 l=0.15
X48 a_545_n545# a_491_n289# a_152_n571# VDD.t12 sky130_fd_pr__pfet_01v8_hvt ad=0.06195 pd=0.715 as=0.0693 ps=0.75 w=0.42 l=0.15
X49 S2.t0 a_1033_n1185# GND.t16 GND.t15 sky130_fd_pr__nfet_01v8 ad=0.169 pd=1.82 as=0.10235 ps=0.995 w=0.65 l=0.15
X50 a_1129_461# CIN.t3 a_1033_95# VDD.t35 sky130_fd_pr__pfet_01v8_hvt ad=0.0441 pd=0.63 as=0.0693 ps=0.75 w=0.42 l=0.15
X51 GND.t91 A3.t4 a_1242_n1459# GND.t90 sky130_fd_pr__nfet_01v8 ad=0.10235 pd=0.995 as=0.063 ps=0.72 w=0.42 l=0.15
X52 a_152_n571# x2.CIN a_377_n179# GND.t0 sky130_fd_pr__nfet_01v8 ad=0.0693 pd=0.75 as=0.0441 ps=0.63 w=0.42 l=0.15
X53 a_1242_n545# B1.t0 a_491_n289# VDD.t63 sky130_fd_pr__pfet_01v8_hvt ad=0.063 pd=0.72 as=0.0567 ps=0.69 w=0.42 l=0.15
X54 GND.t66 B3.t6 a_545_n1459# GND.t65 sky130_fd_pr__nfet_01v8 ad=0.1092 pd=1.36 as=0.0567 ps=0.69 w=0.42 l=0.15
X55 a_1242_n1825# B3.t0 a_491_n1569# VDD.t69 sky130_fd_pr__pfet_01v8_hvt ad=0.063 pd=0.72 as=0.0567 ps=0.69 w=0.42 l=0.15
X56 VDD.t41 A2.t6 a_420_n819# VDD.t40 sky130_fd_pr__pfet_01v8_hvt ad=0.0567 pd=0.69 as=0.0567 ps=0.69 w=0.42 l=0.15
X57 a_377_n545# B1.t3 a_281_n545# VDD.t58 sky130_fd_pr__pfet_01v8_hvt ad=0.0441 pd=0.63 as=0.0693 ps=0.75 w=0.42 l=0.15
X58 COUT.t1 a_491_n1569# GND.t22 GND.t21 sky130_fd_pr__nfet_01v8 ad=0.169 pd=1.82 as=0.10235 ps=0.995 w=0.65 l=0.15
X59 a_491_n1569# x4.CIN a_908_n1825# VDD.t7 sky130_fd_pr__pfet_01v8_hvt ad=0.0567 pd=0.69 as=0.0567 ps=0.69 w=0.42 l=0.15
X60 a_545_n1459# x4.CIN GND.t6 GND.t5 sky130_fd_pr__nfet_01v8 ad=0.0567 pd=0.69 as=0.0567 ps=0.69 w=0.42 l=0.15
X61 a_1201_n819# B2.t4 a_1129_n819# VDD.t83 sky130_fd_pr__pfet_01v8_hvt ad=0.0693 pd=0.75 as=0.0441 ps=0.63 w=0.42 l=0.15
X62 VDD.t53 A1.t0 a_1242_n545# VDD.t52 sky130_fd_pr__pfet_01v8_hvt ad=0.14785 pd=1.345 as=0.063 ps=0.72 w=0.42 l=0.15
X63 x3.CIN a_491_n289# VDD.t14 VDD.t13 sky130_fd_pr__pfet_01v8_hvt ad=0.26 pd=2.52 as=0.14785 ps=1.345 w=1 l=0.15
X64 a_908_n545# A1.t1 VDD.t55 VDD.t54 sky130_fd_pr__pfet_01v8_hvt ad=0.0567 pd=0.69 as=0.0567 ps=0.69 w=0.42 l=0.15
X65 GND.t55 A1.t6 a_545_n179# GND.t54 sky130_fd_pr__nfet_01v8 ad=0.0567 pd=0.69 as=0.06195 ps=0.715 w=0.42 l=0.15
X66 a_114_247# B0.t3 a_246_95# GND.t44 sky130_fd_pr__nfet_01v8 ad=0.0567 pd=0.69 as=0.063 ps=0.72 w=0.42 l=0.15
X67 GND.t10 x3.CIN a_776_n1185# GND.t9 sky130_fd_pr__nfet_01v8 ad=0.0567 pd=0.69 as=0.0567 ps=0.69 w=0.42 l=0.15
X68 a_420_n1185# x3.CIN a_114_n1033# GND.t8 sky130_fd_pr__nfet_01v8 ad=0.0567 pd=0.69 as=0.0567 ps=0.69 w=0.42 l=0.15
X69 VDD.t85 A3.t0 a_1242_n1825# VDD.t84 sky130_fd_pr__pfet_01v8_hvt ad=0.14785 pd=1.345 as=0.063 ps=0.72 w=0.42 l=0.15
X70 GND.t18 a_114_n1033# x4.CIN GND.t17 sky130_fd_pr__nfet_01v8 ad=0.10235 pd=0.995 as=0.169 ps=1.82 w=0.65 l=0.15
X71 a_152_n571# x2.CIN a_377_n545# VDD.t0 sky130_fd_pr__pfet_01v8_hvt ad=0.0693 pd=0.75 as=0.0441 ps=0.63 w=0.42 l=0.15
X72 a_776_n1185# B2.t1 GND.t82 GND.t81 sky130_fd_pr__nfet_01v8 ad=0.0567 pd=0.69 as=0.1092 ps=1.36 w=0.42 l=0.15
X73 GND.t31 a_152_n571# S1.t1 GND.t30 sky130_fd_pr__nfet_01v8 ad=0.10235 pd=0.995 as=0.169 ps=1.82 w=0.65 l=0.15
X74 GND.t71 A0.t2 a_420_95# GND.t70 sky130_fd_pr__nfet_01v8 ad=0.0567 pd=0.69 as=0.0567 ps=0.69 w=0.42 l=0.15
X75 VDD.t66 B3.t2 a_545_n1825# VDD.t65 sky130_fd_pr__pfet_01v8_hvt ad=0.1092 pd=1.36 as=0.0567 ps=0.69 w=0.42 l=0.15
X76 GND.t85 A3.t6 a_545_n1459# GND.t84 sky130_fd_pr__nfet_01v8 ad=0.0567 pd=0.69 as=0.06195 ps=0.715 w=0.42 l=0.15
X77 a_1033_95# a_114_247# a_776_461# VDD.t27 sky130_fd_pr__pfet_01v8_hvt ad=0.0693 pd=0.75 as=0.06195 ps=0.715 w=0.42 l=0.15
X78 a_491_n289# x2.CIN a_908_n179# GND.t3 sky130_fd_pr__nfet_01v8 ad=0.0567 pd=0.69 as=0.0567 ps=0.69 w=0.42 l=0.15
X79 a_420_461# B0.t6 VDD.t46 VDD.t45 sky130_fd_pr__pfet_01v8_hvt ad=0.1092 pd=1.36 as=0.0567 ps=0.69 w=0.42 l=0.15
X80 VDD.t24 a_152_n1851# S3.t1 VDD.t23 sky130_fd_pr__pfet_01v8_hvt ad=0.14785 pd=1.345 as=0.26 ps=2.52 w=1 l=0.15
X81 a_545_n1825# x4.CIN VDD.t6 VDD.t5 sky130_fd_pr__pfet_01v8_hvt ad=0.0567 pd=0.69 as=0.0567 ps=0.69 w=0.42 l=0.15
X82 a_281_n1459# A3.t7 GND.t89 GND.t88 sky130_fd_pr__nfet_01v8 ad=0.0693 pd=0.75 as=0.10235 ps=0.995 w=0.42 l=0.15
X83 GND.t60 B1.t6 a_545_n179# GND.t59 sky130_fd_pr__nfet_01v8 ad=0.1092 pd=1.36 as=0.0567 ps=0.69 w=0.42 l=0.15
X84 VDD.t10 x3.CIN a_776_n819# VDD.t9 sky130_fd_pr__pfet_01v8_hvt ad=0.0567 pd=0.69 as=0.0567 ps=0.69 w=0.42 l=0.15
X85 VDD.t57 A1.t2 a_545_n545# VDD.t56 sky130_fd_pr__pfet_01v8_hvt ad=0.0567 pd=0.69 as=0.06195 ps=0.715 w=0.42 l=0.15
X86 VDD.t73 A0.t6 a_420_461# VDD.t72 sky130_fd_pr__pfet_01v8_hvt ad=0.0567 pd=0.69 as=0.0567 ps=0.69 w=0.42 l=0.15
X87 S2.t1 a_1033_n1185# VDD.t16 VDD.t15 sky130_fd_pr__pfet_01v8_hvt ad=0.26 pd=2.52 as=0.14785 ps=1.345 w=1 l=0.15
X88 GND.t41 A2.t2 a_420_n1185# GND.t40 sky130_fd_pr__nfet_01v8 ad=0.0567 pd=0.69 as=0.0567 ps=0.69 w=0.42 l=0.15
X89 a_281_n179# A1.t7 GND.t57 GND.t56 sky130_fd_pr__nfet_01v8 ad=0.0693 pd=0.75 as=0.10235 ps=0.995 w=0.42 l=0.15
X90 a_776_n1185# A2.t1 GND.t43 GND.t42 sky130_fd_pr__nfet_01v8 ad=0.06195 pd=0.715 as=0.0567 ps=0.69 w=0.42 l=0.15
X91 a_1033_95# a_114_247# a_776_95# GND.t27 sky130_fd_pr__nfet_01v8 ad=0.0693 pd=0.75 as=0.06195 ps=0.715 w=0.42 l=0.15
X92 a_776_461# A0.t5 VDD.t71 VDD.t70 sky130_fd_pr__pfet_01v8_hvt ad=0.06195 pd=0.715 as=0.0567 ps=0.69 w=0.42 l=0.15
X93 a_420_n819# B2.t6 VDD.t80 VDD.t79 sky130_fd_pr__pfet_01v8_hvt ad=0.1092 pd=1.36 as=0.0567 ps=0.69 w=0.42 l=0.15
X94 COUT.t0 a_491_n1569# VDD.t22 VDD.t21 sky130_fd_pr__pfet_01v8_hvt ad=0.26 pd=2.52 as=0.14785 ps=1.345 w=1 l=0.15
X95 a_246_n1185# A2.t3 GND.t37 GND.t36 sky130_fd_pr__nfet_01v8 ad=0.063 pd=0.72 as=0.10235 ps=0.995 w=0.42 l=0.15
X96 a_420_461# CIN.t5 a_114_247# VDD.t32 sky130_fd_pr__pfet_01v8_hvt ad=0.0567 pd=0.69 as=0.0567 ps=0.69 w=0.42 l=0.15
X97 VDD.t87 A3.t2 a_545_n1825# VDD.t86 sky130_fd_pr__pfet_01v8_hvt ad=0.0567 pd=0.69 as=0.06195 ps=0.715 w=0.42 l=0.15
X98 a_1201_95# B0.t0 a_1129_95# GND.t49 sky130_fd_pr__nfet_01v8 ad=0.0693 pd=0.75 as=0.0441 ps=0.63 w=0.42 l=0.15
X99 a_1201_n1185# B2.t0 a_1129_n1185# GND.t83 sky130_fd_pr__nfet_01v8 ad=0.0693 pd=0.75 as=0.0441 ps=0.63 w=0.42 l=0.15
X100 a_491_n289# x2.CIN a_908_n545# VDD.t3 sky130_fd_pr__pfet_01v8_hvt ad=0.0567 pd=0.69 as=0.0567 ps=0.69 w=0.42 l=0.15
X101 VDD.t34 CIN.t4 a_776_461# VDD.t33 sky130_fd_pr__pfet_01v8_hvt ad=0.0567 pd=0.69 as=0.0567 ps=0.69 w=0.42 l=0.15
X102 a_420_95# B0.t2 GND.t46 GND.t45 sky130_fd_pr__nfet_01v8 ad=0.1092 pd=1.36 as=0.0567 ps=0.69 w=0.42 l=0.15
X103 a_281_n1825# A3.t3 VDD.t91 VDD.t90 sky130_fd_pr__pfet_01v8_hvt ad=0.0693 pd=0.75 as=0.14785 ps=1.345 w=0.42 l=0.15
X104 VDD.t60 B1.t2 a_545_n545# VDD.t59 sky130_fd_pr__pfet_01v8_hvt ad=0.1092 pd=1.36 as=0.0567 ps=0.69 w=0.42 l=0.15
X105 VDD.t18 a_114_n1033# x4.CIN VDD.t17 sky130_fd_pr__pfet_01v8_hvt ad=0.14785 pd=1.345 as=0.26 ps=2.52 w=1 l=0.15
X106 VDD.t31 a_152_n571# S1.t0 VDD.t30 sky130_fd_pr__pfet_01v8_hvt ad=0.14785 pd=1.345 as=0.26 ps=2.52 w=1 l=0.15
X107 a_281_n545# A1.t3 VDD.t51 VDD.t50 sky130_fd_pr__pfet_01v8_hvt ad=0.0693 pd=0.75 as=0.14785 ps=1.345 w=0.42 l=0.15
X108 a_114_n1033# B2.t3 a_246_n1185# GND.t78 sky130_fd_pr__nfet_01v8 ad=0.0567 pd=0.69 as=0.063 ps=0.72 w=0.42 l=0.15
X109 a_420_n1185# B2.t2 GND.t80 GND.t79 sky130_fd_pr__nfet_01v8 ad=0.1092 pd=1.36 as=0.0567 ps=0.69 w=0.42 l=0.15
X110 S0.t1 a_1033_95# GND.t29 GND.t28 sky130_fd_pr__nfet_01v8 ad=0.169 pd=1.82 as=0.10235 ps=0.995 w=0.65 l=0.15
X111 a_776_461# B0.t5 VDD.t48 VDD.t47 sky130_fd_pr__pfet_01v8_hvt ad=0.0567 pd=0.69 as=0.1092 ps=1.36 w=0.42 l=0.15
R0 COUT.n2 COUT.t0 782
R1 COUT.t0 COUT.n1 744.115
R2 COUT COUT.t1 211.647
R3 COUT.n1 COUT 73.7552
R4 COUT.n0 COUT 14.2693
R5 COUT COUT.n0 12.3082
R6 COUT.n1 COUT 8.86204
R7 COUT COUT.n2 2.46204
R8 COUT.n2 COUT.n0 1.96973
R9 S3.n4 S3.t1 755.481
R10 S3.t1 S3.n3 755.481
R11 S3 S3.t0 211.043
R12 S3.n2 S3 9.55194
R13 S3.n3 S3 8.1605
R14 S3.n1 S3 8.14595
R15 S3.n0 S3 6.8805
R16 S3.n4 S3 6.2405
R17 S3.n1 S3 5.04292
R18 S3 S3.n0 4.84898
R19 S3 S3.n4 4.6405
R20 S3.n0 S3 4.0005
R21 S3.n3 S3 2.7205
R22 S3 S3.n2 2.5605
R23 S3.n2 S3.n1 1.6005
R24 B3.n10 B3.t4 384.529
R25 B3.n0 B3.t7 373.283
R26 B3.n4 B3.t5 351.861
R27 B3.n5 B3.t1 297.233
R28 B3.n6 B3.n4 214.362
R29 B3.n0 B3.t3 167.63
R30 B3.n11 B3.n10 158.768
R31 B3.n10 B3.t0 156.382
R32 B3.n7 B3.n6 152
R33 B3.n1 B3.n0 152
R34 B3.n4 B3.t6 109.215
R35 B3.n5 B3.t2 102.779
R36 B3.n6 B3.n5 47.4474
R37 B3.n8 B3.n7 11.7894
R38 B3.n2 B3.n1 10.3005
R39 B3.n1 B3 10.2005
R40 B3.n12 B3.n11 9.3005
R41 B3.n7 B3 5.86717
R42 B3.n11 B3 2.50165
R43 B3.n9 B3 2.313
R44 B3 B3.n3 1.79514
R45 B3.n12 B3 1.61055
R46 B3 B3.n9 1.40229
R47 B3.n3 B3 0.259429
R48 B3.n3 B3.n2 0.0793043
R49 B3.n2 B3 0.0793043
R50 B3.n9 B3.n8 0.0793043
R51 B3.n8 B3 0.0793043
R52 B3 B3.n12 0.0793043
R53 A3.n4 A3.t2 373.283
R54 A3.n0 A3.t3 347.577
R55 A3.n12 A3.t0 334.723
R56 A3.n8 A3.t1 323.476
R57 A3.n8 A3.t5 217.436
R58 A3.n12 A3.t4 206.19
R59 A3.n0 A3.t7 193.337
R60 A3.n4 A3.t6 167.63
R61 A3.n9 A3.n8 160.534
R62 A3.n13 A3.n12 159.315
R63 A3.n5 A3.n4 157.12
R64 A3.n1 A3.n0 156
R65 A3.n2 A3.n1 9.3005
R66 A3.n6 A3.n5 9.3005
R67 A3.n10 A3.n9 9.3005
R68 A3.n14 A3.n13 9.3005
R69 A3.n1 A3 4.8005
R70 A3.n13 A3 3.88621
R71 A3.n11 A3 3.563
R72 A3.n9 A3 3.29747
R73 A3.n5 A3 2.90183
R74 A3.n7 A3 1.90229
R75 A3 A3.n7 1.40229
R76 A3 A3.n3 1.38443
R77 A3.n14 A3 1.25118
R78 A3 A3.n11 0.973714
R79 A3.n3 A3 0.259429
R80 A3.n3 A3.n2 0.0793043
R81 A3.n2 A3 0.0793043
R82 A3.n7 A3.n6 0.0793043
R83 A3.n6 A3 0.0793043
R84 A3.n11 A3.n10 0.0793043
R85 A3.n10 A3 0.0793043
R86 A3 A3.n14 0.0793043
R87 S2.t1 S2 758.202
R88 S2.n0 S2.t1 755.481
R89 S2.n3 S2.t0 209.923
R90 S2 S2.n4 11.4429
R91 S2.n2 S2 10.0853
R92 S2.n2 S2 9.76006
R93 S2.n1 S2.n0 8.8005
R94 S2 S2.n3 6.5605
R95 S2.n3 S2 4.3205
R96 S2 S2.n2 3.10353
R97 S2.n4 S2 1.74595
R98 S2 S2.n1 1.55202
R99 S2.n4 S2 1.4405
R100 S2.n1 S2 1.2805
R101 S2.n0 S2 0.8005
R102 B2.n9 B2.t3 384.529
R103 B2.n0 B2.t0 373.283
R104 B2.n4 B2.t2 351.861
R105 B2.n3 B2.t6 297.233
R106 B2.n5 B2.n4 214.362
R107 B2.n0 B2.t4 167.63
R108 B2.n10 B2.n9 157.921
R109 B2.n1 B2.n0 156.571
R110 B2.n9 B2.t7 156.382
R111 B2.n6 B2.n5 152
R112 B2.n4 B2.t1 109.215
R113 B2.n3 B2.t5 102.659
R114 B2.n5 B2.n3 47.4474
R115 B2.n7 B2.n6 10.2702
R116 B2.n6 B2 9.69747
R117 B2 B2.n1 9.37931
R118 B2.n11 B2.n10 9.3005
R119 B2.n10 B2 2.7205
R120 B2.n1 B2 2.59098
R121 B2.n2 B2 1.92014
R122 B2.n2 B2 1.79514
R123 B2.n8 B2 1.40229
R124 B2.n8 B2 0.259429
R125 B2.n7 B2.n2 0.0793043
R126 B2 B2.n7 0.0793043
R127 B2.n11 B2.n8 0.0793043
R128 B2 B2.n11 0.0793043
R129 A2.n3 A2.t5 373.283
R130 A2.n0 A2.t4 347.577
R131 A2.n11 A2.t7 334.723
R132 A2.n7 A2.t6 323.476
R133 A2.n7 A2.t2 217.436
R134 A2.n11 A2.t3 206.19
R135 A2.n0 A2.t0 193.337
R136 A2.n3 A2.t1 167.63
R137 A2.n12 A2.n11 152
R138 A2.n8 A2.n7 152
R139 A2.n4 A2.n3 152
R140 A2.n1 A2.n0 152
R141 A2.n9 A2.n8 17.8338
R142 A2.n1 A2 14.6672
R143 A2.n5 A2.n4 14.4205
R144 A2 A2.n1 13.3793
R145 A2.n13 A2.n12 10.4641
R146 A2.n8 A2 3.29747
R147 A2.n2 A2 3.15229
R148 A2.n4 A2 2.90183
R149 A2.n12 A2 2.13383
R150 A2.n6 A2 1.49157
R151 A2.n6 A2 1.40229
R152 A2.n2 A2 1.38443
R153 A2.n10 A2 0.973714
R154 A2.n10 A2 0.259429
R155 A2.n5 A2.n2 0.0793043
R156 A2 A2.n5 0.0793043
R157 A2.n9 A2.n6 0.0793043
R158 A2 A2.n9 0.0793043
R159 A2.n13 A2.n10 0.0793043
R160 A2 A2.n13 0.0793043
R161 S1.n3 S1.t0 755.481
R162 S1.t0 S1.n2 755.481
R163 S1 S1.t1 211.043
R164 S1.n1 S1 9.69747
R165 S1.n1 S1 9.55258
R166 S1.n2 S1 8.1605
R167 S1 S1.n4 8.14595
R168 S1.n0 S1 6.8805
R169 S1.n3 S1 6.2405
R170 S1.n4 S1 5.04292
R171 S1 S1.n0 4.84898
R172 S1 S1.n3 4.6405
R173 S1.n4 S1 4.1605
R174 S1.n0 S1 4.0005
R175 S1 S1.n1 3.49141
R176 S1.n2 S1 2.7205
R177 B1.n10 B1.t4 384.529
R178 B1.n0 B1.t7 373.283
R179 B1.n4 B1.t5 351.861
R180 B1.n5 B1.t1 297.233
R181 B1.n6 B1.n4 214.362
R182 B1.n0 B1.t3 167.63
R183 B1.n11 B1.n10 158.768
R184 B1.n10 B1.t0 156.382
R185 B1.n7 B1.n6 152
R186 B1.n1 B1.n0 152
R187 B1.n4 B1.t6 109.215
R188 B1.n5 B1.t2 102.779
R189 B1.n6 B1.n5 47.4474
R190 B1.n8 B1.n7 11.7894
R191 B1.n2 B1.n1 10.3005
R192 B1.n1 B1 10.2005
R193 B1.n12 B1.n11 9.3005
R194 B1.n7 B1 5.86717
R195 B1.n11 B1 2.50165
R196 B1.n9 B1 2.313
R197 B1 B1.n3 1.79514
R198 B1.n12 B1 1.61055
R199 B1 B1.n9 1.40229
R200 B1.n3 B1 0.259429
R201 B1.n3 B1.n2 0.0793043
R202 B1.n2 B1 0.0793043
R203 B1.n9 B1.n8 0.0793043
R204 B1.n8 B1 0.0793043
R205 B1 B1.n12 0.0793043
R206 A1.n4 A1.t2 373.283
R207 A1.n0 A1.t3 347.577
R208 A1.n12 A1.t0 334.723
R209 A1.n8 A1.t1 323.476
R210 A1.n8 A1.t5 217.436
R211 A1.n12 A1.t4 206.19
R212 A1.n0 A1.t7 193.337
R213 A1.n4 A1.t6 167.63
R214 A1.n9 A1.n8 160.534
R215 A1.n13 A1.n12 159.315
R216 A1.n5 A1.n4 157.12
R217 A1.n1 A1.n0 156
R218 A1.n2 A1.n1 9.3005
R219 A1.n6 A1.n5 9.3005
R220 A1.n10 A1.n9 9.3005
R221 A1.n14 A1.n13 9.3005
R222 A1.n1 A1 4.8005
R223 A1.n13 A1 3.88621
R224 A1.n11 A1 3.563
R225 A1.n9 A1 3.29747
R226 A1.n5 A1 2.90183
R227 A1.n7 A1 1.90229
R228 A1 A1.n7 1.40229
R229 A1 A1.n3 1.38443
R230 A1.n14 A1 1.25118
R231 A1 A1.n11 0.973714
R232 A1.n3 A1 0.259429
R233 A1.n3 A1.n2 0.0793043
R234 A1.n2 A1 0.0793043
R235 A1.n7 A1.n6 0.0793043
R236 A1.n6 A1 0.0793043
R237 A1.n11 A1.n10 0.0793043
R238 A1.n10 A1 0.0793043
R239 A1 A1.n14 0.0793043
R240 S0.t0 S0 758.202
R241 S0.n0 S0.t0 755.481
R242 S0.n3 S0.t1 209.923
R243 S0 S0.n4 11.4429
R244 S0.n2 S0 10.0853
R245 S0.n2 S0 9.79492
R246 S0.n1 S0.n0 8.8005
R247 S0 S0.n3 6.5605
R248 S0.n3 S0 4.3205
R249 S0 S0.n2 3.10353
R250 S0.n4 S0 1.74595
R251 S0 S0.n1 1.55202
R252 S0.n4 S0 1.4405
R253 S0.n1 S0 1.2805
R254 S0.n0 S0 0.8005
R255 CIN.n3 CIN.t0 373.283
R256 CIN.n2 CIN.n0 357.442
R257 CIN.n1 CIN.t1 346.022
R258 CIN.n0 CIN.t5 325.082
R259 CIN.n0 CIN.t2 215.829
R260 CIN.n1 CIN.t4 193.337
R261 CIN.n3 CIN.t3 167.63
R262 CIN.n2 CIN.n1 152
R263 CIN.n4 CIN.n3 152
R264 CIN.n4 CIN.n2 88.4259
R265 CIN CIN.n4 5.3765
R266 B0.n9 B0.t3 384.529
R267 B0.n0 B0.t0 373.283
R268 B0.n4 B0.t2 351.861
R269 B0.n3 B0.t6 297.233
R270 B0.n5 B0.n4 214.362
R271 B0.n0 B0.t4 167.63
R272 B0.n10 B0.n9 157.921
R273 B0.n1 B0.n0 156.571
R274 B0.n9 B0.t7 156.382
R275 B0.n6 B0.n5 152
R276 B0.n4 B0.t1 109.215
R277 B0.n3 B0.t5 102.659
R278 B0.n5 B0.n3 47.4474
R279 B0.n7 B0.n6 10.2702
R280 B0.n6 B0 9.69747
R281 B0 B0.n1 9.37931
R282 B0.n11 B0.n10 9.3005
R283 B0.n10 B0 2.7205
R284 B0.n1 B0 2.59098
R285 B0.n2 B0 1.92014
R286 B0.n2 B0 1.79514
R287 B0.n8 B0 1.40229
R288 B0.n8 B0 0.259429
R289 B0.n7 B0.n2 0.0793043
R290 B0 B0.n7 0.0793043
R291 B0.n11 B0.n8 0.0793043
R292 B0 B0.n11 0.0793043
R293 A0.n3 A0.t5 373.283
R294 A0.n0 A0.t4 347.577
R295 A0.n11 A0.t7 334.723
R296 A0.n7 A0.t6 323.476
R297 A0.n7 A0.t2 217.436
R298 A0.n11 A0.t3 206.19
R299 A0.n0 A0.t0 193.337
R300 A0.n3 A0.t1 167.63
R301 A0.n12 A0.n11 152
R302 A0.n8 A0.n7 152
R303 A0.n4 A0.n3 152
R304 A0.n1 A0.n0 152
R305 A0.n9 A0.n8 17.8338
R306 A0.n1 A0 14.6672
R307 A0.n5 A0.n4 14.4205
R308 A0 A0.n1 13.3793
R309 A0.n13 A0.n12 10.4641
R310 A0.n8 A0 3.29747
R311 A0.n2 A0 3.15229
R312 A0.n4 A0 2.90183
R313 A0.n12 A0 2.13383
R314 A0.n6 A0 1.49157
R315 A0.n6 A0 1.40229
R316 A0.n2 A0 1.38443
R317 A0.n10 A0 0.973714
R318 A0.n10 A0 0.259429
R319 A0.n5 A0.n2 0.0793043
R320 A0 A0.n5 0.0793043
R321 A0.n9 A0.n6 0.0793043
R322 A0 A0.n9 0.0793043
R323 A0.n13 A0.n10 0.0793043
R324 A0 A0.n13 0.0793043
R325 VDD.n45 VDD.t28 731.032
R326 VDD.n74 VDD.t66 663.062
R327 VDD.n111 VDD.t60 663.062
R328 VDD.n114 VDD.t82 663.062
R329 VDD.n54 VDD.t48 663.062
R330 VDD.n37 VDD.n36 605.481
R331 VDD.n101 VDD.n20 605.481
R332 VDD.n127 VDD.n126 605.481
R333 VDD.n59 VDD.n58 605.481
R334 VDD.n39 VDD.n38 598.965
R335 VDD.n77 VDD.n75 598.965
R336 VDD.n143 VDD.n142 598.965
R337 VDD.n109 VDD.n15 598.965
R338 VDD.n119 VDD.n8 598.965
R339 VDD.n122 VDD.n121 598.965
R340 VDD.n116 VDD.n115 598.965
R341 VDD.n11 VDD.n10 598.965
R342 VDD.n29 VDD.n22 598.965
R343 VDD.n66 VDD.n65 598.965
R344 VDD.n86 VDD.n85 598.965
R345 VDD.n48 VDD.n43 598.965
R346 VDD.t67 VDD.t65 556.386
R347 VDD.t47 VDD.t45 556.386
R348 VDD.n33 VDD 538.664
R349 VDD.t21 VDD.t84 292.991
R350 VDD.t90 VDD.t23 292.991
R351 VDD.t28 VDD.t76 292.991
R352 VDD.t74 VDD.t25 292.991
R353 VDD.t20 VDD.t4 284.113
R354 VDD.t64 VDD.t90 284.113
R355 VDD.t76 VDD.t49 284.113
R356 VDD.t35 VDD.t27 284.113
R357 VDD.t84 VDD.t69 266.356
R358 VDD.t44 VDD.t74 266.356
R359 VDD.t86 VDD.t20 263.397
R360 VDD.t27 VDD.t70 263.397
R361 VDD.t69 VDD.t7 248.599
R362 VDD.t7 VDD.t88 248.599
R363 VDD.t88 VDD.t67 248.599
R364 VDD.t65 VDD.t5 248.599
R365 VDD.t5 VDD.t86 248.599
R366 VDD.t70 VDD.t33 248.599
R367 VDD.t33 VDD.t47 248.599
R368 VDD.t45 VDD.t72 248.599
R369 VDD.t72 VDD.t32 248.599
R370 VDD.t32 VDD.t44 248.599
R371 VDD.n25 VDD.n24 213.119
R372 VDD.n24 VDD.n23 213.119
R373 VDD.t4 VDD.t64 213.084
R374 VDD.t49 VDD.t35 213.084
R375 VDD.t25 VDD 189.409
R376 VDD.n24 VDD 157.856
R377 VDD.t38 VDD.t9 120.544
R378 VDD.t1 VDD.t56 120.544
R379 VDD.n36 VDD.t85 98.5005
R380 VDD.n142 VDD.t91 98.5005
R381 VDD.n20 VDD.t53 98.5005
R382 VDD.n121 VDD.t51 98.5005
R383 VDD.n126 VDD.t43 98.5005
R384 VDD.n22 VDD.t37 98.5005
R385 VDD.n58 VDD.t75 98.5005
R386 VDD.n43 VDD.t77 98.5005
R387 VDD.t15 VDD.t52 91.8434
R388 VDD.t42 VDD.t30 91.8434
R389 VDD.t17 VDD 91.8434
R390 VDD VDD.t21 88.7855
R391 VDD.t9 VDD.t59 83.2331
R392 VDD.t81 VDD.t1 83.2331
R393 VDD.t36 VDD.t63 78.928
R394 VDD.t11 VDD.t54 78.928
R395 VDD.t40 VDD.t0 78.928
R396 VDD.t78 VDD.t50 78.928
R397 VDD.t61 VDD.t38 66.0126
R398 VDD.t56 VDD.t79 66.0126
R399 VDD.n38 VDD.t89 63.3219
R400 VDD.n38 VDD.t68 63.3219
R401 VDD.n75 VDD.t6 63.3219
R402 VDD.n75 VDD.t87 63.3219
R403 VDD.n15 VDD.t55 63.3219
R404 VDD.n15 VDD.t62 63.3219
R405 VDD.n8 VDD.t2 63.3219
R406 VDD.n8 VDD.t57 63.3219
R407 VDD.n115 VDD.t80 63.3219
R408 VDD.n115 VDD.t41 63.3219
R409 VDD.n10 VDD.t39 63.3219
R410 VDD.n10 VDD.t10 63.3219
R411 VDD.n65 VDD.t46 63.3219
R412 VDD.n65 VDD.t73 63.3219
R413 VDD.n85 VDD.t71 63.3219
R414 VDD.n85 VDD.t34 63.3219
R415 VDD.t83 VDD.t3 61.7074
R416 VDD.t19 VDD.t61 61.7074
R417 VDD.t79 VDD.t12 61.7074
R418 VDD.t8 VDD.t58 61.7074
R419 VDD.t63 VDD.t83 58.8374
R420 VDD.t54 VDD.t19 58.8374
R421 VDD.t12 VDD.t40 58.8374
R422 VDD.t58 VDD.t78 58.8374
R423 VDD.t13 VDD.t15 50.2271
R424 VDD.t52 VDD.t36 50.2271
R425 VDD.t50 VDD.t42 50.2271
R426 VDD.t30 VDD.t17 50.2271
R427 VDD.n125 VDD.n122 43.9358
R428 VDD VDD.t13 43.0519
R429 VDD.t3 VDD.t11 41.6168
R430 VDD.t0 VDD.t8 41.6168
R431 VDD.t59 VDD.t81 37.3117
R432 VDD.n95 VDD.n94 34.6358
R433 VDD.n94 VDD.n93 34.6358
R434 VDD.n76 VDD.n1 34.6358
R435 VDD.n140 VDD.n1 34.6358
R436 VDD.n141 VDD.n140 34.6358
R437 VDD.n103 VDD.n102 34.6358
R438 VDD.n103 VDD.n14 34.6358
R439 VDD.n133 VDD.n120 34.6358
R440 VDD.n133 VDD.n132 34.6358
R441 VDD.n132 VDD.n131 34.6358
R442 VDD.n123 VDD.n5 34.6358
R443 VDD.n124 VDD.n123 34.6358
R444 VDD.n21 VDD.n17 34.6358
R445 VDD.n106 VDD.n17 34.6358
R446 VDD.n107 VDD.n106 34.6358
R447 VDD.n29 VDD.n28 34.6358
R448 VDD.n64 VDD.n56 34.6358
R449 VDD.n60 VDD.n56 34.6358
R450 VDD.n52 VDD.n49 34.6358
R451 VDD.n53 VDD.n52 34.6358
R452 VDD.n87 VDD.n53 34.6358
R453 VDD.n48 VDD.n44 34.6358
R454 VDD.n77 VDD.n76 31.624
R455 VDD.n120 VDD.n119 31.624
R456 VDD.n107 VDD.n11 31.624
R457 VDD.n87 VDD.n86 31.624
R458 VDD.n95 VDD.n37 28.9887
R459 VDD.n102 VDD.n101 28.9887
R460 VDD.n127 VDD.n124 28.9887
R461 VDD.n60 VDD.n59 28.9887
R462 VDD.n36 VDD.t22 27.9557
R463 VDD.n142 VDD.t24 27.9557
R464 VDD.n20 VDD.t14 27.9557
R465 VDD.n121 VDD.t31 27.9557
R466 VDD.n126 VDD.t18 27.9557
R467 VDD.n22 VDD.t16 27.9557
R468 VDD.n58 VDD.t26 27.9557
R469 VDD.n43 VDD.t29 27.9557
R470 VDD.n73 VDD.n39 27.1064
R471 VDD.n110 VDD.n109 27.1064
R472 VDD.n117 VDD.n116 27.1064
R473 VDD.n67 VDD.n66 27.1064
R474 VDD.n78 VDD.n74 25.6005
R475 VDD.n111 VDD.n7 25.6005
R476 VDD.n114 VDD.n113 25.6005
R477 VDD.n84 VDD.n54 25.6005
R478 VDD.n35 VDD.n33 23.7181
R479 VDD.n25 VDD.n19 23.7181
R480 VDD.n28 VDD.n23 23.7181
R481 VDD.n45 VDD.n44 23.7181
R482 VDD.n37 VDD.n35 21.4593
R483 VDD.n101 VDD.n19 21.4593
R484 VDD.n74 VDD.n73 18.824
R485 VDD.n111 VDD.n110 18.824
R486 VDD.n117 VDD.n114 18.824
R487 VDD.n67 VDD.n54 18.824
R488 VDD.n93 VDD.n39 17.3181
R489 VDD.n109 VDD.n14 17.3181
R490 VDD.n116 VDD.n5 17.3181
R491 VDD.n66 VDD.n64 17.3181
R492 VDD.n78 VDD.n77 12.8005
R493 VDD.n119 VDD.n7 12.8005
R494 VDD.n113 VDD.n11 12.8005
R495 VDD.n86 VDD.n84 12.8005
R496 VDD.n143 VDD.n141 9.78874
R497 VDD.n131 VDD.n122 9.78874
R498 VDD.n29 VDD.n21 9.78874
R499 VDD.n49 VDD.n48 9.78874
R500 VDD VDD.n45 9.3031
R501 VDD VDD.n33 9.3031
R502 VDD.n46 VDD.n44 9.3005
R503 VDD.n48 VDD.n47 9.3005
R504 VDD.n50 VDD.n49 9.3005
R505 VDD.n52 VDD.n51 9.3005
R506 VDD.n53 VDD.n41 9.3005
R507 VDD.n88 VDD.n87 9.3005
R508 VDD.n86 VDD.n42 9.3005
R509 VDD.n84 VDD.n83 9.3005
R510 VDD.n69 VDD.n54 9.3005
R511 VDD.n68 VDD.n67 9.3005
R512 VDD.n66 VDD.n55 9.3005
R513 VDD.n64 VDD.n63 9.3005
R514 VDD.n62 VDD.n56 9.3005
R515 VDD.n61 VDD.n60 9.3005
R516 VDD.n26 VDD.n23 9.3005
R517 VDD.n28 VDD.n27 9.3005
R518 VDD.n100 VDD.n29 9.3005
R519 VDD.n21 VDD.n18 9.3005
R520 VDD.n104 VDD.n17 9.3005
R521 VDD.n106 VDD.n105 9.3005
R522 VDD.n108 VDD.n107 9.3005
R523 VDD.n12 VDD.n11 9.3005
R524 VDD.n113 VDD.n112 9.3005
R525 VDD.n114 VDD.n9 9.3005
R526 VDD.n118 VDD.n117 9.3005
R527 VDD.n116 VDD.n4 9.3005
R528 VDD.n134 VDD.n5 9.3005
R529 VDD.n123 VDD.n6 9.3005
R530 VDD.n130 VDD.n124 9.3005
R531 VDD.n129 VDD.n122 9.3005
R532 VDD.n131 VDD.n130 9.3005
R533 VDD.n132 VDD.n6 9.3005
R534 VDD.n134 VDD.n133 9.3005
R535 VDD.n120 VDD.n4 9.3005
R536 VDD.n119 VDD.n118 9.3005
R537 VDD.n9 VDD.n7 9.3005
R538 VDD.n112 VDD.n111 9.3005
R539 VDD.n110 VDD.n12 9.3005
R540 VDD.n109 VDD.n108 9.3005
R541 VDD.n105 VDD.n14 9.3005
R542 VDD.n104 VDD.n103 9.3005
R543 VDD.n102 VDD.n18 9.3005
R544 VDD.n101 VDD.n100 9.3005
R545 VDD.n27 VDD.n19 9.3005
R546 VDD.n26 VDD.n25 9.3005
R547 VDD.n141 VDD.n0 9.3005
R548 VDD.n140 VDD.n139 9.3005
R549 VDD.n138 VDD.n1 9.3005
R550 VDD.n76 VDD.n2 9.3005
R551 VDD.n77 VDD.n71 9.3005
R552 VDD.n79 VDD.n78 9.3005
R553 VDD.n74 VDD.n70 9.3005
R554 VDD.n73 VDD.n72 9.3005
R555 VDD.n40 VDD.n39 9.3005
R556 VDD.n93 VDD.n92 9.3005
R557 VDD.n94 VDD.n32 9.3005
R558 VDD.n96 VDD.n95 9.3005
R559 VDD.n37 VDD.n31 9.3005
R560 VDD.n35 VDD.n34 9.3005
R561 VDD.n90 VDD.n89 8.76203
R562 VDD.n82 VDD.n81 8.76203
R563 VDD.n136 VDD.n3 8.76203
R564 VDD.n98 VDD.n30 8.76203
R565 VDD.n91 VDD.n90 8.76203
R566 VDD.n81 VDD.n80 8.76203
R567 VDD.n137 VDD.n136 8.76203
R568 VDD.n98 VDD.n97 8.76065
R569 VDD.n136 VDD.n135 7.9105
R570 VDD.n81 VDD.n13 7.9105
R571 VDD.n90 VDD.n16 7.9105
R572 VDD.n99 VDD.n98 7.9105
R573 VDD.n144 VDD.n143 7.65909
R574 VDD.n128 VDD.n127 7.13126
R575 VDD.n59 VDD.n57 7.12063
R576 VDD VDD.n144 0.159538
R577 VDD.n61 VDD.n57 0.148519
R578 VDD.n144 VDD.n0 0.141672
R579 VDD.n47 VDD.n46 0.120292
R580 VDD.n51 VDD.n50 0.120292
R581 VDD.n51 VDD.n41 0.120292
R582 VDD.n88 VDD.n42 0.120292
R583 VDD.n83 VDD.n42 0.120292
R584 VDD.n69 VDD.n68 0.120292
R585 VDD.n68 VDD.n55 0.120292
R586 VDD.n63 VDD.n62 0.120292
R587 VDD.n62 VDD.n61 0.120292
R588 VDD.n96 VDD.n32 0.120292
R589 VDD.n92 VDD.n32 0.120292
R590 VDD.n72 VDD.n40 0.120292
R591 VDD.n72 VDD.n70 0.120292
R592 VDD.n79 VDD.n71 0.120292
R593 VDD.n71 VDD.n2 0.120292
R594 VDD.n139 VDD.n138 0.120292
R595 VDD.n139 VDD.n0 0.120292
R596 VDD.n57 VDD 0.11354
R597 VDD.n47 VDD.n30 0.0968542
R598 VDD VDD.n31 0.0968542
R599 VDD.n97 VDD.n31 0.0968542
R600 VDD.n89 VDD.n41 0.0916458
R601 VDD.n92 VDD.n91 0.0916458
R602 VDD.n83 VDD.n82 0.0864375
R603 VDD.n80 VDD.n70 0.0864375
R604 VDD.n34 VDD 0.0825312
R605 VDD.n55 VDD.n3 0.0812292
R606 VDD.n137 VDD.n2 0.0812292
R607 VDD.n46 VDD 0.0603958
R608 VDD.n104 VDD.n18 0.0603958
R609 VDD.n105 VDD.n104 0.0603958
R610 VDD.n108 VDD.n12 0.0603958
R611 VDD.n112 VDD.n12 0.0603958
R612 VDD.n118 VDD.n9 0.0603958
R613 VDD.n118 VDD.n4 0.0603958
R614 VDD.n134 VDD.n6 0.0603958
R615 VDD.n130 VDD.n6 0.0603958
R616 VDD.n130 VDD.n129 0.0603958
R617 VDD.n100 VDD 0.0486771
R618 VDD.n100 VDD.n99 0.0486771
R619 VDD.n128 VDD.n125 0.0469218
R620 VDD.n105 VDD.n16 0.0460729
R621 VDD.n112 VDD.n13 0.0434688
R622 VDD.n135 VDD.n4 0.0408646
R623 VDD.n63 VDD.n3 0.0395625
R624 VDD.n138 VDD.n137 0.0395625
R625 VDD.n82 VDD.n69 0.0343542
R626 VDD.n80 VDD.n79 0.0343542
R627 VDD.n27 VDD 0.0304479
R628 VDD.n89 VDD.n88 0.0291458
R629 VDD.n91 VDD.n40 0.0291458
R630 VDD.n50 VDD.n30 0.0239375
R631 VDD.n34 VDD 0.0239375
R632 VDD.n97 VDD.n96 0.0239375
R633 VDD.n135 VDD.n134 0.0200312
R634 VDD.n13 VDD.n9 0.0174271
R635 VDD.n129 VDD.n128 0.0148846
R636 VDD.n108 VDD.n16 0.0148229
R637 VDD.n27 VDD 0.0122188