* NGSPICE file created from zlc_16bit.ext - technology: sky130A

.subckt zlc_16bit Y[2] Y[0] A[15] A[12] A[13] A[14] VDD GND Y[3] Y[1] A[2] A[1] A[0]
+ A[3] A[11] A[8] A[9] A[10] A[6] A[5] A[4] A[7] Y[4]
X0 Z1[2] A[4].t3 GND.t205 GND.t204 sky130_fd_pr__nfet_01v8 ad=0.11863 pd=1.015 as=0.169 ps=1.82 w=0.65 l=0.15
X1 GND.t132 x3.x9.B a_3367_n2437# GND.t131 sky130_fd_pr__nfet_01v8 ad=0.1118 pd=1.04 as=0.0567 ps=0.69 w=0.42 l=0.15
X2 Z2[2] A[10].t3 GND.t247 GND.t246 sky130_fd_pr__nfet_01v8 ad=0.08775 pd=0.92 as=0.08937 ps=0.925 w=0.65 l=0.15
X3 a_285_n935# A[9].t5 a_203_n935# VDD.t171 sky130_fd_pr__pfet_01v8_hvt ad=0.19 pd=1.38 as=0.13 ps=1.26 w=1 l=0.15
X4 a_203_n2215# A[4].t5 Z1[2] VDD.t212 sky130_fd_pr__pfet_01v8_hvt ad=0.13 pd=1.26 as=0.26 ps=2.52 w=1 l=0.15
X5 GND.t215 A[5].t3 Z1[2] GND.t214 sky130_fd_pr__nfet_01v8 ad=0.08937 pd=0.925 as=0.11863 ps=1.015 w=0.65 l=0.15
X6 VDD.t92 x2.x8.A a_2912_n935# VDD.t91 sky130_fd_pr__pfet_01v8_hvt ad=0.14575 pd=1.335 as=0.0441 ps=0.63 w=0.42 l=0.15
X7 GND.t195 Y[3].t5 a_1819_n3066# GND.t194 sky130_fd_pr__nfet_01v8 ad=0.1449 pd=1.11 as=0.1092 ps=1.36 w=0.42 l=0.15
X8 a_1245_n2739# a_991_n3066# GND.t135 GND.t134 sky130_fd_pr__nfet_01v8 ad=0.0693 pd=0.75 as=0.1449 ps=1.11 w=0.42 l=0.15
X9 GND.t30 x1.x8.A a_2830_345# GND.t29 sky130_fd_pr__nfet_01v8 ad=0.10025 pd=0.985 as=0.0567 ps=0.69 w=0.42 l=0.15
X10 a_1173_n3066# a_991_n3066# VDD.t150 VDD.t149 sky130_fd_pr__pfet_01v8_hvt ad=0.0441 pd=0.63 as=0.0693 ps=0.75 w=0.42 l=0.15
X11 x3.x9.B a_2830_n2215# GND.t146 GND.t145 sky130_fd_pr__nfet_01v8 ad=0.169 pd=1.82 as=0.10025 ps=0.985 w=0.65 l=0.15
X12 GND.t123 a_1193_n313# x11.B GND.t122 sky130_fd_pr__nfet_01v8 ad=0.1118 pd=1.04 as=0.182 ps=1.86 w=0.65 l=0.15
X13 x9.Y Z0[2] GND.t59 GND.t58 sky130_fd_pr__nfet_01v8 ad=0.169 pd=1.82 as=0.169 ps=1.82 w=0.65 l=0.15
X14 x16.A0 a_3281_123# GND.t26 GND.t25 sky130_fd_pr__nfet_01v8 ad=0.182 pd=1.86 as=0.1118 ps=1.04 w=0.65 l=0.15
X15 a_3367_n2437# x3.x9.A a_3281_n2437# GND.t10 sky130_fd_pr__nfet_01v8 ad=0.0567 pd=0.69 as=0.1176 ps=1.4 w=0.42 l=0.15
X16 x3.x9.B a_2830_n2215# VDD.t161 VDD.t160 sky130_fd_pr__pfet_01v8_hvt ad=0.34 pd=2.68 as=0.14575 ps=1.335 w=1 l=0.15
X17 a_391_345# A[14].t5 a_285_345# VDD.t209 sky130_fd_pr__pfet_01v8_hvt ad=0.135 pd=1.27 as=0.19 ps=1.38 w=1 l=0.15
X18 a_2073_n2739# a_1819_n3066# GND.t187 GND.t186 sky130_fd_pr__nfet_01v8 ad=0.0693 pd=0.75 as=0.1449 ps=1.11 w=0.42 l=0.15
X19 a_1466_n2739# Z0[0] a_1245_n3066# GND.t133 sky130_fd_pr__nfet_01v8 ad=0.0693 pd=0.75 as=0.09975 ps=0.895 w=0.42 l=0.15
X20 GND.t241 A[15].t3 Z3[2] GND.t240 sky130_fd_pr__nfet_01v8 ad=0.169 pd=1.82 as=0.08775 ps=0.92 w=0.65 l=0.15
X21 GND.t211 A[11].t2 x2.x4.A GND.t210 sky130_fd_pr__nfet_01v8 ad=0.169 pd=1.82 as=0.08775 ps=0.92 w=0.65 l=0.15
X22 x2.x7.A A[9].t0 GND.t161 GND.t160 sky130_fd_pr__nfet_01v8 ad=0.169 pd=1.82 as=0.169 ps=1.82 w=0.65 l=0.15
X23 a_1349_123# x1.x4.A VDD.t23 VDD.t22 sky130_fd_pr__pfet_01v8_hvt ad=0.0567 pd=0.69 as=0.1176 ps=1.4 w=0.42 l=0.15
X24 GND.t139 A[13].t3 Z3[2] GND.t138 sky130_fd_pr__nfet_01v8 ad=0.08937 pd=0.925 as=0.11863 ps=1.015 w=0.65 l=0.15
X25 GND.t253 A[0].t0 a_2447_n3717# GND.t252 sky130_fd_pr__nfet_01v8 ad=0.1118 pd=1.04 as=0.0567 ps=0.69 w=0.42 l=0.15
X26 x4.x9.A A[3].t1 VDD.t235 VDD.t234 sky130_fd_pr__pfet_01v8_hvt ad=0.26 pd=2.52 as=0.26 ps=2.52 w=1 l=0.15
X27 VDD.t208 Y[3].t3 a_1819_n3066# VDD.t207 sky130_fd_pr__pfet_01v8_hvt ad=0.0693 pd=0.75 as=0.1176 ps=1.4 w=0.42 l=0.15
X28 a_1245_n3066# Z0[0] a_1173_n3066# VDD.t148 sky130_fd_pr__pfet_01v8_hvt ad=0.1932 pd=1.34 as=0.0441 ps=0.63 w=0.42 l=0.15
X29 a_2912_345# A[14].t1 a_2830_345# VDD.t211 sky130_fd_pr__pfet_01v8_hvt ad=0.0441 pd=0.63 as=0.1092 ps=1.36 w=0.42 l=0.15
X30 GND.t42 x1.x9.B a_3367_123# GND.t41 sky130_fd_pr__nfet_01v8 ad=0.1118 pd=1.04 as=0.0567 ps=0.69 w=0.42 l=0.15
X31 a_417_n1459# a_163_n1786# GND.t92 GND.t91 sky130_fd_pr__nfet_01v8 ad=0.0693 pd=0.75 as=0.1449 ps=1.11 w=0.42 l=0.15
X32 a_417_n1786# x13.A1 a_345_n1786# VDD.t81 sky130_fd_pr__pfet_01v8_hvt ad=0.1932 pd=1.34 as=0.0441 ps=0.63 w=0.42 l=0.15
X33 a_345_n3066# a_163_n3066# VDD.t163 VDD.t162 sky130_fd_pr__pfet_01v8_hvt ad=0.0441 pd=0.63 as=0.0693 ps=0.75 w=0.42 l=0.15
X34 x1.x9.A A[15].t0 GND.t243 GND.t242 sky130_fd_pr__nfet_01v8 ad=0.169 pd=1.82 as=0.169 ps=1.82 w=0.65 l=0.15
X35 a_2294_n2739# x17.X a_2073_n3066# GND.t151 sky130_fd_pr__nfet_01v8 ad=0.0693 pd=0.75 as=0.09975 ps=0.895 w=0.42 l=0.15
X36 a_898_n935# A[8].t2 GND.t165 GND.t164 sky130_fd_pr__nfet_01v8 ad=0.0567 pd=0.69 as=0.1092 ps=1.36 w=0.42 l=0.15
X37 VDD.t141 x4.x9.B a_3281_n3717# VDD.t140 sky130_fd_pr__pfet_01v8_hvt ad=0.16655 pd=1.39 as=0.0567 ps=0.69 w=0.42 l=0.15
X38 a_2073_n3066# x17.X a_2001_n3066# VDD.t166 sky130_fd_pr__pfet_01v8_hvt ad=0.1932 pd=1.34 as=0.0441 ps=0.63 w=0.42 l=0.15
X39 a_638_n2739# x16.A1 a_417_n3066# GND.t75 sky130_fd_pr__nfet_01v8 ad=0.0693 pd=0.75 as=0.09975 ps=0.895 w=0.42 l=0.15
X40 VDD.t244 A[15].t4 a_663_345# VDD.t243 sky130_fd_pr__pfet_01v8_hvt ad=0.26 pd=2.52 as=0.105 ps=1.21 w=1 l=0.15
X41 a_447_n207# x10.B GND.t125 GND.t124 sky130_fd_pr__nfet_01v8 ad=0.0567 pd=0.69 as=0.1118 ps=1.04 w=0.42 l=0.15
X42 x13.A1 a_1349_n1157# VDD.t157 VDD.t156 sky130_fd_pr__pfet_01v8_hvt ad=0.475 pd=2.95 as=0.16655 ps=1.39 w=1 l=0.15
X43 a_2447_n3717# x4.x7.A a_2361_n3717# GND.t169 sky130_fd_pr__nfet_01v8 ad=0.0567 pd=0.69 as=0.1176 ps=1.4 w=0.42 l=0.15
X44 a_914_n429# x8.Y VDD.t44 VDD.t43 sky130_fd_pr__pfet_01v8_hvt ad=0.0441 pd=0.63 as=0.14575 ps=1.335 w=0.42 l=0.15
X45 a_1245_n3066# Z1[0] a_1245_n2739# GND.t11 sky130_fd_pr__nfet_01v8 ad=0.09975 pd=0.895 as=0.0693 ps=0.75 w=0.42 l=0.15
X46 x1.x9.B a_2830_345# GND.t28 GND.t27 sky130_fd_pr__nfet_01v8 ad=0.169 pd=1.82 as=0.10025 ps=0.985 w=0.65 l=0.15
X47 VDD.t25 Z3[2] a_2933_n571# VDD.t24 sky130_fd_pr__pfet_01v8_hvt ad=0.1092 pd=1.36 as=0.0735 ps=0.77 w=0.42 l=0.15
X48 a_2830_n2215# A[6].t0 GND.t225 GND.t224 sky130_fd_pr__nfet_01v8 ad=0.0567 pd=0.69 as=0.1092 ps=1.36 w=0.42 l=0.15
X49 a_663_n935# A[10].t4 x2.x4.A VDD.t248 sky130_fd_pr__pfet_01v8_hvt ad=0.105 pd=1.21 as=0.26 ps=2.52 w=1 l=0.15
X50 a_3281_n3717# x4.x9.A VDD.t119 VDD.t118 sky130_fd_pr__pfet_01v8_hvt ad=0.0567 pd=0.69 as=0.1176 ps=1.4 w=0.42 l=0.15
X51 a_3225_n179# Z1[2] a_3129_n179# GND.t49 sky130_fd_pr__nfet_01v8 ad=0.0798 pd=0.8 as=0.0693 ps=0.75 w=0.42 l=0.15
X52 GND.t235 A[1].t2 a_898_n3495# GND.t234 sky130_fd_pr__nfet_01v8 ad=0.10025 pd=0.985 as=0.0567 ps=0.69 w=0.42 l=0.15
X53 x3.x9.A A[7].t0 GND.t257 GND.t256 sky130_fd_pr__nfet_01v8 ad=0.169 pd=1.82 as=0.169 ps=1.82 w=0.65 l=0.15
X54 GND.t185 Y[2].t6 a_1466_n2739# GND.t184 sky130_fd_pr__nfet_01v8 ad=0.11285 pd=1.045 as=0.0693 ps=0.75 w=0.42 l=0.15
X55 GND.t137 A[13].t2 a_898_345# GND.t136 sky130_fd_pr__nfet_01v8 ad=0.10025 pd=0.985 as=0.0567 ps=0.69 w=0.42 l=0.15
X56 VDD.t78 a_273_n313# Y[2].t0 VDD.t77 sky130_fd_pr__pfet_01v8_hvt ad=0.16655 pd=1.39 as=0.475 ps=2.95 w=1 l=0.15
X57 a_203_n935# A[8].t5 Z2[2] VDD.t176 sky130_fd_pr__pfet_01v8_hvt ad=0.13 pd=1.26 as=0.26 ps=2.52 w=1 l=0.15
X58 x4.x4.A A[2].t2 GND.t265 GND.t264 sky130_fd_pr__nfet_01v8 ad=0.08775 pd=0.92 as=0.169 ps=1.82 w=0.65 l=0.15
X59 a_2001_n3066# a_1819_n3066# VDD.t200 VDD.t199 sky130_fd_pr__pfet_01v8_hvt ad=0.0441 pd=0.63 as=0.0693 ps=0.75 w=0.42 l=0.15
X60 GND.t61 Z0[2] a_2687_n225# GND.t60 sky130_fd_pr__nfet_01v8 ad=0.169 pd=1.82 as=0.08775 ps=0.92 w=0.65 l=0.15
X61 a_2193_n313# Z3[2] VDD.t27 VDD.t26 sky130_fd_pr__pfet_01v8_hvt ad=0.1092 pd=1.36 as=0.0567 ps=0.69 w=0.42 l=0.15
X62 VDD.t83 x2.x4.B a_1349_n1157# VDD.t82 sky130_fd_pr__pfet_01v8_hvt ad=0.16655 pd=1.39 as=0.0567 ps=0.69 w=0.42 l=0.15
X63 x3.x9.A A[7].t1 VDD.t255 VDD.t254 sky130_fd_pr__pfet_01v8_hvt ad=0.26 pd=2.52 as=0.26 ps=2.52 w=1 l=0.15
X64 a_3367_123# x1.x9.A a_3281_123# GND.t32 sky130_fd_pr__nfet_01v8 ad=0.0567 pd=0.69 as=0.1176 ps=1.4 w=0.42 l=0.15
X65 a_417_n1786# x13.A0 a_417_n1459# GND.t33 sky130_fd_pr__nfet_01v8 ad=0.09975 pd=0.895 as=0.0693 ps=0.75 w=0.42 l=0.15
X66 GND.t5 x3.x4.B a_1435_n2437# GND.t4 sky130_fd_pr__nfet_01v8 ad=0.1118 pd=1.04 as=0.0567 ps=0.69 w=0.42 l=0.15
X67 GND.t191 Y[3].t4 a_2294_n2739# GND.t190 sky130_fd_pr__nfet_01v8 ad=0.11285 pd=1.045 as=0.0693 ps=0.75 w=0.42 l=0.15
X68 GND.t209 A[11].t3 Z2[2] GND.t208 sky130_fd_pr__nfet_01v8 ad=0.169 pd=1.82 as=0.08775 ps=0.92 w=0.65 l=0.15
X69 x13.A1 a_1349_n1157# GND.t143 GND.t142 sky130_fd_pr__nfet_01v8 ad=0.182 pd=1.86 as=0.1118 ps=1.04 w=0.65 l=0.15
X70 a_2912_n3495# A[2].t1 a_2830_n3495# VDD.t262 sky130_fd_pr__pfet_01v8_hvt ad=0.0441 pd=0.63 as=0.1092 ps=1.36 w=0.42 l=0.15
X71 VDD.t192 Y[2].t2 a_1459_n3066# VDD.t191 sky130_fd_pr__pfet_01v8_hvt ad=0.15835 pd=1.395 as=0.07665 ps=0.785 w=0.42 l=0.15
X72 GND.t183 Y[2].t8 a_638_n2739# GND.t182 sky130_fd_pr__nfet_01v8 ad=0.11285 pd=1.045 as=0.0693 ps=0.75 w=0.42 l=0.15
X73 x1.x9.A A[15].t1 VDD.t246 VDD.t245 sky130_fd_pr__pfet_01v8_hvt ad=0.26 pd=2.52 as=0.26 ps=2.52 w=1 l=0.15
X74 x4.x4.B a_898_n3495# GND.t155 GND.t154 sky130_fd_pr__nfet_01v8 ad=0.169 pd=1.82 as=0.10025 ps=0.985 w=0.65 l=0.15
X75 GND.t177 Y[2].t15 a_991_n1786# GND.t176 sky130_fd_pr__nfet_01v8 ad=0.1449 pd=1.11 as=0.1092 ps=1.36 w=0.42 l=0.15
X76 VDD.t184 Y[2].t11 a_991_n1786# VDD.t183 sky130_fd_pr__pfet_01v8_hvt ad=0.0693 pd=0.75 as=0.1176 ps=1.4 w=0.42 l=0.15
X77 x4.x8.A a_2361_n3717# VDD.t125 VDD.t124 sky130_fd_pr__pfet_01v8_hvt ad=0.475 pd=2.95 as=0.16655 ps=1.39 w=1 l=0.15
X78 x17.X a_1245_n3066# GND.t7 GND.t6 sky130_fd_pr__nfet_01v8 ad=0.169 pd=1.82 as=0.11285 ps=1.045 w=0.65 l=0.15
X79 VDD.t131 x4.x8.A a_2912_n3495# VDD.t130 sky130_fd_pr__pfet_01v8_hvt ad=0.14575 pd=1.335 as=0.0441 ps=0.63 w=0.42 l=0.15
X80 VDD.t206 Y[3].t2 a_2287_n3066# VDD.t205 sky130_fd_pr__pfet_01v8_hvt ad=0.15835 pd=1.395 as=0.07665 ps=0.785 w=0.42 l=0.15
X81 a_631_n3066# x16.A0 a_417_n3066# VDD.t47 sky130_fd_pr__pfet_01v8_hvt ad=0.07665 pd=0.785 as=0.1932 ps=1.34 w=0.42 l=0.15
X82 VDD.t155 A[13].t4 a_980_345# VDD.t154 sky130_fd_pr__pfet_01v8_hvt ad=0.14575 pd=1.335 as=0.0441 ps=0.63 w=0.42 l=0.15
X83 a_2427_n179# Z2[2] a_2355_n179# GND.t56 sky130_fd_pr__nfet_01v8 ad=0.0441 pd=0.63 as=0.0441 ps=0.63 w=0.42 l=0.15
X84 a_3281_n1157# x2.x9.A VDD.t87 VDD.t86 sky130_fd_pr__pfet_01v8_hvt ad=0.0567 pd=0.69 as=0.1176 ps=1.4 w=0.42 l=0.15
X85 x16.A1 a_3281_n1157# GND.t9 GND.t8 sky130_fd_pr__nfet_01v8 ad=0.182 pd=1.86 as=0.1118 ps=1.04 w=0.65 l=0.15
X86 VDD.t194 Y[2].t4 a_631_n3066# VDD.t193 sky130_fd_pr__pfet_01v8_hvt ad=0.15835 pd=1.395 as=0.07665 ps=0.785 w=0.42 l=0.15
X87 a_751_n313# x11.B a_914_n429# VDD.t50 sky130_fd_pr__pfet_01v8_hvt ad=0.1092 pd=1.36 as=0.0441 ps=0.63 w=0.42 l=0.15
X88 GND.t171 Y[2].t17 a_163_n1786# GND.t170 sky130_fd_pr__nfet_01v8 ad=0.1449 pd=1.11 as=0.1092 ps=1.36 w=0.42 l=0.15
X89 VDD.t186 Y[2].t13 a_163_n1786# VDD.t185 sky130_fd_pr__pfet_01v8_hvt ad=0.0693 pd=0.75 as=0.1176 ps=1.4 w=0.42 l=0.15
X90 a_663_345# A[14].t4 x1.x4.A VDD.t210 sky130_fd_pr__pfet_01v8_hvt ad=0.105 pd=1.21 as=0.26 ps=2.52 w=1 l=0.15
X91 VDD.t29 Z3[2] a_273_n313# VDD.t28 sky130_fd_pr__pfet_01v8_hvt ad=0.1176 pd=1.4 as=0.0567 ps=0.69 w=0.42 l=0.15
X92 x16.X a_417_n3066# GND.t103 GND.t102 sky130_fd_pr__nfet_01v8 ad=0.169 pd=1.82 as=0.11285 ps=1.045 w=0.65 l=0.15
X93 VDD.t179 A[8].t1 a_2361_n1157# VDD.t178 sky130_fd_pr__pfet_01v8_hvt ad=0.16655 pd=1.39 as=0.0567 ps=0.69 w=0.42 l=0.15
X94 VDD.t127 x4.x4.B a_1349_n3717# VDD.t126 sky130_fd_pr__pfet_01v8_hvt ad=0.16655 pd=1.39 as=0.0567 ps=0.69 w=0.42 l=0.15
X95 a_1367_n207# x9.Y GND.t65 GND.t64 sky130_fd_pr__nfet_01v8 ad=0.0567 pd=0.69 as=0.1118 ps=1.04 w=0.42 l=0.15
X96 VDD.t217 A[11].t4 a_663_n935# VDD.t216 sky130_fd_pr__pfet_01v8_hvt ad=0.26 pd=2.52 as=0.105 ps=1.21 w=1 l=0.15
X97 a_2912_n2215# A[6].t1 a_2830_n2215# VDD.t229 sky130_fd_pr__pfet_01v8_hvt ad=0.0441 pd=0.63 as=0.1092 ps=1.36 w=0.42 l=0.15
X98 Z0[2] A[2].t3 GND.t263 GND.t262 sky130_fd_pr__nfet_01v8 ad=0.08775 pd=0.92 as=0.08937 ps=0.925 w=0.65 l=0.15
X99 a_285_345# A[13].t5 a_203_345# VDD.t151 sky130_fd_pr__pfet_01v8_hvt ad=0.19 pd=1.38 as=0.13 ps=1.26 w=1 l=0.15
X100 VDD.t46 a_751_n313# x10.B VDD.t45 sky130_fd_pr__pfet_01v8_hvt ad=0.14575 pd=1.335 as=0.34 ps=2.68 w=1 l=0.15
X101 a_1173_n1786# a_991_n1786# VDD.t102 VDD.t101 sky130_fd_pr__pfet_01v8_hvt ad=0.0441 pd=0.63 as=0.0693 ps=0.75 w=0.42 l=0.15
X102 a_1435_n2437# x3.x4.A a_1349_n2437# GND.t144 sky130_fd_pr__nfet_01v8 ad=0.0567 pd=0.69 as=0.1176 ps=1.4 w=0.42 l=0.15
X103 x3.x8.A a_2361_n2437# GND.t129 GND.t128 sky130_fd_pr__nfet_01v8 ad=0.182 pd=1.86 as=0.1118 ps=1.04 w=0.65 l=0.15
X104 a_980_345# A[12].t4 a_898_345# VDD.t133 sky130_fd_pr__pfet_01v8_hvt ad=0.0441 pd=0.63 as=0.1092 ps=1.36 w=0.42 l=0.15
X105 GND.t101 x3.x8.A a_2830_n2215# GND.t100 sky130_fd_pr__nfet_01v8 ad=0.10025 pd=0.985 as=0.0567 ps=0.69 w=0.42 l=0.15
X106 GND.t77 x2.x9.B a_3367_n1157# GND.t76 sky130_fd_pr__nfet_01v8 ad=0.1118 pd=1.04 as=0.0567 ps=0.69 w=0.42 l=0.15
X107 x14.X a_1245_n1786# GND.t84 GND.t83 sky130_fd_pr__nfet_01v8 ad=0.169 pd=1.82 as=0.11285 ps=1.045 w=0.65 l=0.15
X108 x3.x8.A a_2361_n2437# VDD.t143 VDD.t142 sky130_fd_pr__pfet_01v8_hvt ad=0.475 pd=2.95 as=0.16655 ps=1.39 w=1 l=0.15
X109 Z2[2] A[8].t3 GND.t163 GND.t162 sky130_fd_pr__nfet_01v8 ad=0.11863 pd=1.015 as=0.169 ps=1.82 w=0.65 l=0.15
X110 VDD.t115 x3.x8.A a_2912_n2215# VDD.t114 sky130_fd_pr__pfet_01v8_hvt ad=0.14575 pd=1.335 as=0.0441 ps=0.63 w=0.42 l=0.15
X111 VDD.t49 x1.x9.B a_3281_123# VDD.t48 sky130_fd_pr__pfet_01v8_hvt ad=0.16655 pd=1.39 as=0.0567 ps=0.69 w=0.42 l=0.15
X112 VDD.t137 a_1193_n313# x11.B VDD.t136 sky130_fd_pr__pfet_01v8_hvt ad=0.16655 pd=1.39 as=0.475 ps=2.95 w=1 l=0.15
X113 x9.Y Z0[2] VDD.t74 VDD.t73 sky130_fd_pr__pfet_01v8_hvt ad=0.26 pd=2.52 as=0.26 ps=2.52 w=1 l=0.15
X114 GND.t157 A[9].t3 Z2[2] GND.t156 sky130_fd_pr__nfet_01v8 ad=0.08937 pd=0.925 as=0.11863 ps=1.015 w=0.65 l=0.15
X115 GND.t189 Y[3].t9 a_1819_n1786# GND.t188 sky130_fd_pr__nfet_01v8 ad=0.1449 pd=1.11 as=0.1092 ps=1.36 w=0.42 l=0.15
X116 a_1245_n1786# x4.Z[1] a_1173_n1786# VDD.t99 sky130_fd_pr__pfet_01v8_hvt ad=0.1932 pd=1.34 as=0.0441 ps=0.63 w=0.42 l=0.15
X117 VDD.t202 Y[3].t7 a_1819_n1786# VDD.t201 sky130_fd_pr__pfet_01v8_hvt ad=0.0693 pd=0.75 as=0.1176 ps=1.4 w=0.42 l=0.15
X118 x4.x7.A A[1].t0 GND.t237 GND.t236 sky130_fd_pr__nfet_01v8 ad=0.169 pd=1.82 as=0.169 ps=1.82 w=0.65 l=0.15
X119 GND.t231 A[3].t2 x4.x4.A GND.t230 sky130_fd_pr__nfet_01v8 ad=0.169 pd=1.82 as=0.08775 ps=0.92 w=0.65 l=0.15
X120 x17.X a_1245_n3066# VDD.t7 VDD.t6 sky130_fd_pr__pfet_01v8_hvt ad=0.26 pd=2.52 as=0.15835 ps=1.395 w=1 l=0.15
X121 a_3129_n179# Z0[2] GND.t63 GND.t62 sky130_fd_pr__nfet_01v8 ad=0.0693 pd=0.75 as=0.19627 ps=1.33 w=0.42 l=0.15
X122 a_1245_n1459# a_991_n1786# GND.t88 GND.t87 sky130_fd_pr__nfet_01v8 ad=0.0693 pd=0.75 as=0.1449 ps=1.11 w=0.42 l=0.15
X123 a_345_n1786# a_163_n1786# VDD.t106 VDD.t105 sky130_fd_pr__pfet_01v8_hvt ad=0.0441 pd=0.63 as=0.0693 ps=0.75 w=0.42 l=0.15
X124 a_2933_n571# Z2[2] VDD.t66 VDD.t65 sky130_fd_pr__pfet_01v8_hvt ad=0.0735 pd=0.77 as=0.0777 ps=0.79 w=0.42 l=0.15
X125 x2.x9.B a_2830_n935# GND.t1 GND.t0 sky130_fd_pr__nfet_01v8 ad=0.169 pd=1.82 as=0.10025 ps=0.985 w=0.65 l=0.15
X126 GND.t55 Z2[2] x8.Y GND.t54 sky130_fd_pr__nfet_01v8 ad=0.169 pd=1.82 as=0.169 ps=1.82 w=0.65 l=0.15
X127 a_3331_n179# Z2[2] a_3225_n179# GND.t57 sky130_fd_pr__nfet_01v8 ad=0.0609 pd=0.71 as=0.0798 ps=0.8 w=0.42 l=0.15
X128 x13.X a_417_n1786# GND.t90 GND.t89 sky130_fd_pr__nfet_01v8 ad=0.169 pd=1.82 as=0.11285 ps=1.045 w=0.65 l=0.15
X129 a_2193_n313# Z3[2] a_2427_n179# GND.t23 sky130_fd_pr__nfet_01v8 ad=0.1092 pd=1.36 as=0.0441 ps=0.63 w=0.42 l=0.15
X130 a_3367_n1157# x2.x9.A a_3281_n1157# GND.t74 sky130_fd_pr__nfet_01v8 ad=0.0567 pd=0.69 as=0.1176 ps=1.4 w=0.42 l=0.15
X131 a_2073_n1459# a_1819_n1786# GND.t82 GND.t81 sky130_fd_pr__nfet_01v8 ad=0.0693 pd=0.75 as=0.1449 ps=1.11 w=0.42 l=0.15
X132 a_2073_n1786# x14.X a_2001_n1786# VDD.t15 sky130_fd_pr__pfet_01v8_hvt ad=0.1932 pd=1.34 as=0.0441 ps=0.63 w=0.42 l=0.15
X133 a_898_n3495# A[0].t2 GND.t255 GND.t254 sky130_fd_pr__nfet_01v8 ad=0.0567 pd=0.69 as=0.1092 ps=1.36 w=0.42 l=0.15
X134 a_1466_n1459# x4.Z[1] a_1245_n1786# GND.t85 sky130_fd_pr__nfet_01v8 ad=0.0693 pd=0.75 as=0.09975 ps=0.895 w=0.42 l=0.15
X135 a_2073_n3066# x16.X a_2073_n2739# GND.t168 sky130_fd_pr__nfet_01v8 ad=0.09975 pd=0.895 as=0.0693 ps=0.75 w=0.42 l=0.15
X136 VDD.t238 A[1].t4 a_980_n3495# VDD.t237 sky130_fd_pr__pfet_01v8_hvt ad=0.14575 pd=1.335 as=0.0441 ps=0.63 w=0.42 l=0.15
X137 x16.X a_417_n3066# VDD.t117 VDD.t116 sky130_fd_pr__pfet_01v8_hvt ad=0.26 pd=2.52 as=0.15835 ps=1.395 w=1 l=0.15
X138 GND.t203 A[4].t0 a_2447_n2437# GND.t202 sky130_fd_pr__nfet_01v8 ad=0.1118 pd=1.04 as=0.0567 ps=0.69 w=0.42 l=0.15
X139 a_663_n3495# A[2].t4 x4.x4.A VDD.t261 sky130_fd_pr__pfet_01v8_hvt ad=0.105 pd=1.21 as=0.26 ps=2.52 w=1 l=0.15
X140 Z3[2] A[12].t3 GND.t119 GND.t118 sky130_fd_pr__nfet_01v8 ad=0.11863 pd=1.015 as=0.169 ps=1.82 w=0.65 l=0.15
X141 a_2294_n1459# x14.X a_2073_n1786# GND.t14 sky130_fd_pr__nfet_01v8 ad=0.0693 pd=0.75 as=0.09975 ps=0.895 w=0.42 l=0.15
X142 a_1349_n3717# x4.x4.A VDD.t129 VDD.t128 sky130_fd_pr__pfet_01v8_hvt ad=0.0567 pd=0.69 as=0.1176 ps=1.4 w=0.42 l=0.15
X143 x1.x4.A A[14].t2 GND.t197 GND.t196 sky130_fd_pr__nfet_01v8 ad=0.08775 pd=0.92 as=0.169 ps=1.82 w=0.65 l=0.15
X144 VDD.t147 x3.x9.B a_3281_n2437# VDD.t146 sky130_fd_pr__pfet_01v8_hvt ad=0.16655 pd=1.39 as=0.0567 ps=0.69 w=0.42 l=0.15
X145 a_1459_n3066# Z1[0] a_1245_n3066# VDD.t12 sky130_fd_pr__pfet_01v8_hvt ad=0.07665 pd=0.785 as=0.1932 ps=1.34 w=0.42 l=0.15
X146 x1.x4.B a_898_345# VDD.t19 VDD.t18 sky130_fd_pr__pfet_01v8_hvt ad=0.34 pd=2.68 as=0.14575 ps=1.335 w=1 l=0.15
X147 GND.t35 x1.x4.B a_1435_123# GND.t34 sky130_fd_pr__nfet_01v8 ad=0.1118 pd=1.04 as=0.0567 ps=0.69 w=0.42 l=0.15
X148 a_638_n1459# x13.A1 a_417_n1786# GND.t70 sky130_fd_pr__nfet_01v8 ad=0.0693 pd=0.75 as=0.09975 ps=0.895 w=0.42 l=0.15
X149 VDD.t233 A[3].t4 a_663_n3495# VDD.t232 sky130_fd_pr__pfet_01v8_hvt ad=0.26 pd=2.52 as=0.105 ps=1.21 w=1 l=0.15
X150 a_3281_123# x1.x9.A VDD.t39 VDD.t38 sky130_fd_pr__pfet_01v8_hvt ad=0.0567 pd=0.69 as=0.1176 ps=1.4 w=0.42 l=0.15
X151 VDD.t58 Z1[2] a_1193_n313# VDD.t57 sky130_fd_pr__pfet_01v8_hvt ad=0.1176 pd=1.4 as=0.0567 ps=0.69 w=0.42 l=0.15
X152 a_2001_n1786# a_1819_n1786# VDD.t96 VDD.t95 sky130_fd_pr__pfet_01v8_hvt ad=0.0441 pd=0.63 as=0.0693 ps=0.75 w=0.42 l=0.15
X153 x4.x4.B a_898_n3495# VDD.t170 VDD.t169 sky130_fd_pr__pfet_01v8_hvt ad=0.34 pd=2.68 as=0.14575 ps=1.335 w=1 l=0.15
X154 a_2447_n2437# x3.x7.A a_2361_n2437# GND.t130 sky130_fd_pr__nfet_01v8 ad=0.0567 pd=0.69 as=0.1176 ps=1.4 w=0.42 l=0.15
X155 GND.t46 a_2933_n571# Y[4].t1 GND.t45 sky130_fd_pr__nfet_01v8 ad=0.19627 pd=1.33 as=0.169 ps=1.82 w=0.65 l=0.15
X156 a_1245_n1786# x3.Z[1] a_1245_n1459# GND.t86 sky130_fd_pr__nfet_01v8 ad=0.09975 pd=0.895 as=0.0693 ps=0.75 w=0.42 l=0.15
X157 a_2287_n3066# x16.X a_2073_n3066# VDD.t180 sky130_fd_pr__pfet_01v8_hvt ad=0.07665 pd=0.785 as=0.1932 ps=1.34 w=0.42 l=0.15
X158 x1.x4.B a_898_345# GND.t18 GND.t17 sky130_fd_pr__nfet_01v8 ad=0.169 pd=1.82 as=0.10025 ps=0.985 w=0.65 l=0.15
X159 a_898_345# A[12].t2 GND.t117 GND.t116 sky130_fd_pr__nfet_01v8 ad=0.0567 pd=0.69 as=0.1092 ps=1.36 w=0.42 l=0.15
X160 a_391_n935# A[10].t5 a_285_n935# VDD.t247 sky130_fd_pr__pfet_01v8_hvt ad=0.135 pd=1.27 as=0.19 ps=1.38 w=1 l=0.15
X161 a_2830_n935# A[10].t0 GND.t245 GND.t244 sky130_fd_pr__nfet_01v8 ad=0.0567 pd=0.69 as=0.1092 ps=1.36 w=0.42 l=0.15
X162 a_3281_n2437# x3.x9.A VDD.t11 VDD.t10 sky130_fd_pr__pfet_01v8_hvt ad=0.0567 pd=0.69 as=0.1176 ps=1.4 w=0.42 l=0.15
X163 VDD.t72 Z0[2] x6.Y VDD.t71 sky130_fd_pr__pfet_01v8_hvt ad=0.26 pd=2.52 as=0.135 ps=1.27 w=1 l=0.15
X164 x2.x9.A A[11].t0 GND.t213 GND.t212 sky130_fd_pr__nfet_01v8 ad=0.169 pd=1.82 as=0.169 ps=1.82 w=0.65 l=0.15
X165 GND.t173 Y[2].t14 a_1466_n1459# GND.t172 sky130_fd_pr__nfet_01v8 ad=0.11285 pd=1.045 as=0.0693 ps=0.75 w=0.42 l=0.15
X166 VDD.t190 Y[2].t10 a_1459_n1786# VDD.t189 sky130_fd_pr__pfet_01v8_hvt ad=0.15835 pd=1.395 as=0.07665 ps=0.785 w=0.42 l=0.15
X167 GND.t217 A[5].t2 a_898_n2215# GND.t216 sky130_fd_pr__nfet_01v8 ad=0.10025 pd=0.985 as=0.0567 ps=0.69 w=0.42 l=0.15
X168 x4.Z[1] a_1349_n3717# GND.t153 GND.t152 sky130_fd_pr__nfet_01v8 ad=0.182 pd=1.86 as=0.1118 ps=1.04 w=0.65 l=0.15
X169 VDD.t253 A[0].t1 a_2361_n3717# VDD.t252 sky130_fd_pr__pfet_01v8_hvt ad=0.16655 pd=1.39 as=0.0567 ps=0.69 w=0.42 l=0.15
X170 GND.t227 A[3].t3 Z0[2] GND.t226 sky130_fd_pr__nfet_01v8 ad=0.169 pd=1.82 as=0.08775 ps=0.92 w=0.65 l=0.15
X171 x16.A0 a_3281_123# VDD.t31 VDD.t30 sky130_fd_pr__pfet_01v8_hvt ad=0.475 pd=2.95 as=0.16655 ps=1.39 w=1 l=0.15
X172 x3.x4.A A[6].t2 GND.t223 GND.t222 sky130_fd_pr__nfet_01v8 ad=0.08775 pd=0.92 as=0.169 ps=1.82 w=0.65 l=0.15
X173 Y[0].t1 a_2073_n3066# GND.t150 GND.t149 sky130_fd_pr__nfet_01v8 ad=0.169 pd=1.82 as=0.11285 ps=1.045 w=0.65 l=0.15
X174 x16.A1 a_3281_n1157# VDD.t9 VDD.t8 sky130_fd_pr__pfet_01v8_hvt ad=0.475 pd=2.95 as=0.16655 ps=1.39 w=1 l=0.15
X175 VDD.t226 A[5].t4 a_980_n2215# VDD.t225 sky130_fd_pr__pfet_01v8_hvt ad=0.14575 pd=1.335 as=0.0441 ps=0.63 w=0.42 l=0.15
X176 GND.t121 A[12].t0 a_2447_123# GND.t120 sky130_fd_pr__nfet_01v8 ad=0.1118 pd=1.04 as=0.0567 ps=0.69 w=0.42 l=0.15
X177 a_663_n2215# A[6].t4 x3.x4.A VDD.t228 sky130_fd_pr__pfet_01v8_hvt ad=0.105 pd=1.21 as=0.26 ps=2.52 w=1 l=0.15
X178 GND.t72 x2.x4.B a_1435_n1157# GND.t71 sky130_fd_pr__nfet_01v8 ad=0.1118 pd=1.04 as=0.0567 ps=0.69 w=0.42 l=0.15
X179 a_631_n1786# x13.A0 a_417_n1786# VDD.t40 sky130_fd_pr__pfet_01v8_hvt ad=0.07665 pd=0.785 as=0.1932 ps=1.34 w=0.42 l=0.15
X180 GND.t193 Y[3].t8 a_2294_n1459# GND.t192 sky130_fd_pr__nfet_01v8 ad=0.11285 pd=1.045 as=0.0693 ps=0.75 w=0.42 l=0.15
X181 VDD.t204 Y[3].t6 a_2287_n1786# VDD.t203 sky130_fd_pr__pfet_01v8_hvt ad=0.15835 pd=1.395 as=0.07665 ps=0.785 w=0.42 l=0.15
X182 GND.t175 Y[2].t16 a_638_n1459# GND.t174 sky130_fd_pr__nfet_01v8 ad=0.11285 pd=1.045 as=0.0693 ps=0.75 w=0.42 l=0.15
X183 VDD.t188 Y[2].t12 a_631_n1786# VDD.t187 sky130_fd_pr__pfet_01v8_hvt ad=0.15835 pd=1.395 as=0.07665 ps=0.785 w=0.42 l=0.15
X184 a_2193_n313# x6.Y VDD.t60 VDD.t59 sky130_fd_pr__pfet_01v8_hvt ad=0.06615 pd=0.735 as=0.14222 ps=1.335 w=0.42 l=0.15
X185 x3.x4.B a_898_n2215# GND.t97 GND.t96 sky130_fd_pr__nfet_01v8 ad=0.169 pd=1.82 as=0.10025 ps=0.985 w=0.65 l=0.15
X186 Z0[0] a_3281_n3717# GND.t106 GND.t105 sky130_fd_pr__nfet_01v8 ad=0.182 pd=1.86 as=0.1118 ps=1.04 w=0.65 l=0.15
X187 a_2361_n3717# x4.x7.A VDD.t182 VDD.t181 sky130_fd_pr__pfet_01v8_hvt ad=0.0567 pd=0.69 as=0.1176 ps=1.4 w=0.42 l=0.15
X188 a_980_n3495# A[0].t4 a_898_n3495# VDD.t251 sky130_fd_pr__pfet_01v8_hvt ad=0.0441 pd=0.63 as=0.1092 ps=1.36 w=0.42 l=0.15
X189 a_391_n3495# A[2].t5 a_285_n3495# VDD.t260 sky130_fd_pr__pfet_01v8_hvt ad=0.135 pd=1.27 as=0.19 ps=1.38 w=1 l=0.15
X190 a_2933_n571# Z0[2] VDD.t70 VDD.t69 sky130_fd_pr__pfet_01v8_hvt ad=0.0588 pd=0.7 as=0.31245 ps=1.68 w=0.42 l=0.15
X191 VDD.t259 A[7].t4 a_663_n2215# VDD.t258 sky130_fd_pr__pfet_01v8_hvt ad=0.26 pd=2.52 as=0.105 ps=1.21 w=1 l=0.15
X192 x3.x4.B a_898_n2215# VDD.t111 VDD.t110 sky130_fd_pr__pfet_01v8_hvt ad=0.34 pd=2.68 as=0.14575 ps=1.335 w=1 l=0.15
X193 a_2687_n225# Z1[2] x6.Y GND.t48 sky130_fd_pr__nfet_01v8 ad=0.08775 pd=0.92 as=0.169 ps=1.82 w=0.65 l=0.15
X194 a_980_n935# A[8].t4 a_898_n935# VDD.t177 sky130_fd_pr__pfet_01v8_hvt ad=0.0441 pd=0.63 as=0.1092 ps=1.36 w=0.42 l=0.15
X195 a_1349_n1157# x2.x4.A VDD.t85 VDD.t84 sky130_fd_pr__pfet_01v8_hvt ad=0.0567 pd=0.69 as=0.1176 ps=1.4 w=0.42 l=0.15
X196 GND.t53 a_2193_n313# Y[3].t1 GND.t52 sky130_fd_pr__nfet_01v8 ad=0.13165 pd=1.14 as=0.169 ps=1.82 w=0.65 l=0.15
X197 x4.x7.A A[1].t1 VDD.t240 VDD.t239 sky130_fd_pr__pfet_01v8_hvt ad=0.26 pd=2.52 as=0.26 ps=2.52 w=1 l=0.15
X198 Y[1].t1 a_2073_n1786# GND.t95 GND.t94 sky130_fd_pr__nfet_01v8 ad=0.169 pd=1.82 as=0.11285 ps=1.045 w=0.65 l=0.15
X199 VDD.t5 x3.x4.B a_1349_n2437# VDD.t4 sky130_fd_pr__pfet_01v8_hvt ad=0.16655 pd=1.39 as=0.0567 ps=0.69 w=0.42 l=0.15
X200 a_2447_123# x1.x7.A a_2361_123# GND.t31 sky130_fd_pr__nfet_01v8 ad=0.0567 pd=0.69 as=0.1176 ps=1.4 w=0.42 l=0.15
X201 a_751_n313# x8.Y GND.t37 GND.t36 sky130_fd_pr__nfet_01v8 ad=0.0567 pd=0.69 as=0.10025 ps=0.985 w=0.42 l=0.15
X202 VDD.t54 Z1[2] a_2933_n571# VDD.t53 sky130_fd_pr__pfet_01v8_hvt ad=0.0777 pd=0.79 as=0.0588 ps=0.7 w=0.42 l=0.15
X203 GND.t127 x4.x9.B a_3367_n3717# GND.t126 sky130_fd_pr__nfet_01v8 ad=0.1118 pd=1.04 as=0.0567 ps=0.69 w=0.42 l=0.15
X204 Y[0].t0 a_2073_n3066# VDD.t165 VDD.t164 sky130_fd_pr__pfet_01v8_hvt ad=0.26 pd=2.52 as=0.15835 ps=1.395 w=1 l=0.15
X205 Z0[2] A[0].t3 GND.t251 GND.t250 sky130_fd_pr__nfet_01v8 ad=0.11863 pd=1.015 as=0.169 ps=1.82 w=0.65 l=0.15
X206 x14.X a_1245_n1786# VDD.t98 VDD.t97 sky130_fd_pr__pfet_01v8_hvt ad=0.26 pd=2.52 as=0.15835 ps=1.395 w=1 l=0.15
X207 Z1[2] A[6].t3 GND.t221 GND.t220 sky130_fd_pr__nfet_01v8 ad=0.08775 pd=0.92 as=0.08937 ps=0.925 w=0.65 l=0.15
X208 GND.t233 A[1].t3 Z0[2] GND.t232 sky130_fd_pr__nfet_01v8 ad=0.08937 pd=0.925 as=0.11863 ps=1.015 w=0.65 l=0.15
X209 a_391_n2215# A[6].t5 a_285_n2215# VDD.t227 sky130_fd_pr__pfet_01v8_hvt ad=0.135 pd=1.27 as=0.19 ps=1.38 w=1 l=0.15
X210 a_980_n2215# A[4].t4 a_898_n2215# VDD.t213 sky130_fd_pr__pfet_01v8_hvt ad=0.0441 pd=0.63 as=0.1092 ps=1.36 w=0.42 l=0.15
X211 a_1435_n1157# x2.x4.A a_1349_n1157# GND.t73 sky130_fd_pr__nfet_01v8 ad=0.0567 pd=0.69 as=0.1176 ps=1.4 w=0.42 l=0.15
X212 x2.x8.A a_2361_n1157# GND.t13 GND.t12 sky130_fd_pr__nfet_01v8 ad=0.182 pd=1.86 as=0.1118 ps=1.04 w=0.65 l=0.15
X213 GND.t239 A[15].t2 x1.x4.A GND.t238 sky130_fd_pr__nfet_01v8 ad=0.169 pd=1.82 as=0.08775 ps=0.92 w=0.65 l=0.15
X214 a_273_n313# x10.B VDD.t139 VDD.t138 sky130_fd_pr__pfet_01v8_hvt ad=0.0567 pd=0.69 as=0.16655 ps=1.39 w=0.42 l=0.15
X215 GND.t79 x2.x8.A a_2830_n935# GND.t78 sky130_fd_pr__nfet_01v8 ad=0.10025 pd=0.985 as=0.0567 ps=0.69 w=0.42 l=0.15
X216 x4.x9.B a_2830_n3495# GND.t108 GND.t107 sky130_fd_pr__nfet_01v8 ad=0.169 pd=1.82 as=0.10025 ps=0.985 w=0.65 l=0.15
X217 a_2361_n1157# x2.x7.A VDD.t94 VDD.t93 sky130_fd_pr__pfet_01v8_hvt ad=0.0567 pd=0.69 as=0.1176 ps=1.4 w=0.42 l=0.15
X218 a_273_n313# Z3[2] a_447_n207# GND.t22 sky130_fd_pr__nfet_01v8 ad=0.1176 pd=1.4 as=0.0567 ps=0.69 w=0.42 l=0.15
X219 a_3367_n3717# x4.x9.A a_3281_n3717# GND.t104 sky130_fd_pr__nfet_01v8 ad=0.0567 pd=0.69 as=0.1176 ps=1.4 w=0.42 l=0.15
X220 a_285_n3495# A[1].t5 a_203_n3495# VDD.t236 sky130_fd_pr__pfet_01v8_hvt ad=0.19 pd=1.38 as=0.13 ps=1.26 w=1 l=0.15
X221 VDD.t173 A[9].t4 a_980_n935# VDD.t172 sky130_fd_pr__pfet_01v8_hvt ad=0.14575 pd=1.335 as=0.0441 ps=0.63 w=0.42 l=0.15
X222 x13.X a_417_n1786# VDD.t104 VDD.t103 sky130_fd_pr__pfet_01v8_hvt ad=0.26 pd=2.52 as=0.15835 ps=1.395 w=1 l=0.15
X223 x3.x7.A A[5].t0 GND.t219 GND.t218 sky130_fd_pr__nfet_01v8 ad=0.169 pd=1.82 as=0.169 ps=1.82 w=0.65 l=0.15
X224 VDD.t64 Z2[2] x8.Y VDD.t63 sky130_fd_pr__pfet_01v8_hvt ad=0.26 pd=2.52 as=0.26 ps=2.52 w=1 l=0.15
X225 GND.t261 A[7].t2 x3.x4.A GND.t260 sky130_fd_pr__nfet_01v8 ad=0.169 pd=1.82 as=0.08775 ps=0.92 w=0.65 l=0.15
X226 x3.x7.A A[5].t1 VDD.t224 VDD.t223 sky130_fd_pr__pfet_01v8_hvt ad=0.26 pd=2.52 as=0.26 ps=2.52 w=1 l=0.15
X227 VDD.t42 x1.x4.B a_1349_123# VDD.t41 sky130_fd_pr__pfet_01v8_hvt ad=0.16655 pd=1.39 as=0.0567 ps=0.69 w=0.42 l=0.15
X228 x1.x8.A a_2361_123# GND.t20 GND.t19 sky130_fd_pr__nfet_01v8 ad=0.182 pd=1.86 as=0.1118 ps=1.04 w=0.65 l=0.15
X229 a_417_n2739# a_163_n3066# GND.t148 GND.t147 sky130_fd_pr__nfet_01v8 ad=0.0693 pd=0.75 as=0.1449 ps=1.11 w=0.42 l=0.15
X230 a_203_345# A[12].t5 Z3[2] VDD.t132 sky130_fd_pr__pfet_01v8_hvt ad=0.13 pd=1.26 as=0.26 ps=2.52 w=1 l=0.15
X231 x2.x7.A A[9].t1 VDD.t175 VDD.t174 sky130_fd_pr__pfet_01v8_hvt ad=0.26 pd=2.52 as=0.26 ps=2.52 w=1 l=0.15
X232 a_1459_n1786# x3.Z[1] a_1245_n1786# VDD.t100 sky130_fd_pr__pfet_01v8_hvt ad=0.07665 pd=0.785 as=0.1932 ps=1.34 w=0.42 l=0.15
X233 a_898_n2215# A[4].t2 GND.t207 GND.t206 sky130_fd_pr__nfet_01v8 ad=0.0567 pd=0.69 as=0.1092 ps=1.36 w=0.42 l=0.15
X234 a_2073_n1786# x13.X a_2073_n1459# GND.t93 sky130_fd_pr__nfet_01v8 ad=0.09975 pd=0.895 as=0.0693 ps=0.75 w=0.42 l=0.15
X235 x4.Z[1] a_1349_n3717# VDD.t168 VDD.t167 sky130_fd_pr__pfet_01v8_hvt ad=0.475 pd=2.95 as=0.16655 ps=1.39 w=1 l=0.15
X236 GND.t167 A[8].t0 a_2447_n1157# GND.t166 sky130_fd_pr__nfet_01v8 ad=0.1118 pd=1.04 as=0.0567 ps=0.69 w=0.42 l=0.15
X237 VDD.t231 A[3].t5 a_391_n3495# VDD.t230 sky130_fd_pr__pfet_01v8_hvt ad=0.26 pd=2.52 as=0.135 ps=1.27 w=1 l=0.15
X238 a_2287_n1786# x13.X a_2073_n1786# VDD.t107 sky130_fd_pr__pfet_01v8_hvt ad=0.07665 pd=0.785 as=0.1932 ps=1.34 w=0.42 l=0.15
X239 a_1349_n2437# x3.x4.A VDD.t159 VDD.t158 sky130_fd_pr__pfet_01v8_hvt ad=0.0567 pd=0.69 as=0.1176 ps=1.4 w=0.42 l=0.15
X240 x2.x9.A A[11].t1 VDD.t221 VDD.t220 sky130_fd_pr__pfet_01v8_hvt ad=0.26 pd=2.52 as=0.26 ps=2.52 w=1 l=0.15
X241 a_417_n3066# x16.A1 a_345_n3066# VDD.t88 sky130_fd_pr__pfet_01v8_hvt ad=0.1932 pd=1.34 as=0.0441 ps=0.63 w=0.42 l=0.15
X242 a_1435_123# x1.x4.A a_1349_123# GND.t21 sky130_fd_pr__nfet_01v8 ad=0.0567 pd=0.69 as=0.1176 ps=1.4 w=0.42 l=0.15
X243 a_2830_345# A[14].t0 GND.t201 GND.t200 sky130_fd_pr__nfet_01v8 ad=0.0567 pd=0.69 as=0.1092 ps=1.36 w=0.42 l=0.15
X244 a_2830_n3495# A[2].t0 GND.t267 GND.t266 sky130_fd_pr__nfet_01v8 ad=0.0567 pd=0.69 as=0.1092 ps=1.36 w=0.42 l=0.15
X245 VDD.t52 a_2933_n571# Y[4].t0 VDD.t51 sky130_fd_pr__pfet_01v8_hvt ad=0.31245 pd=1.68 as=0.26 ps=2.52 w=1 l=0.15
X246 Z3[2] A[14].t3 GND.t199 GND.t198 sky130_fd_pr__nfet_01v8 ad=0.08775 pd=0.92 as=0.08937 ps=0.925 w=0.65 l=0.15
X247 VDD.t135 A[12].t1 a_2361_123# VDD.t134 sky130_fd_pr__pfet_01v8_hvt ad=0.16655 pd=1.39 as=0.0567 ps=0.69 w=0.42 l=0.15
X248 x1.x9.B a_2830_345# VDD.t33 VDD.t32 sky130_fd_pr__pfet_01v8_hvt ad=0.34 pd=2.68 as=0.14575 ps=1.335 w=1 l=0.15
X249 a_2447_n1157# x2.x7.A a_2361_n1157# GND.t80 sky130_fd_pr__nfet_01v8 ad=0.0567 pd=0.69 as=0.1176 ps=1.4 w=0.42 l=0.15
X250 a_285_n2215# A[5].t5 a_203_n2215# VDD.t222 sky130_fd_pr__pfet_01v8_hvt ad=0.19 pd=1.38 as=0.13 ps=1.26 w=1 l=0.15
X251 x4.x9.A A[3].t0 GND.t229 GND.t228 sky130_fd_pr__nfet_01v8 ad=0.169 pd=1.82 as=0.169 ps=1.82 w=0.65 l=0.15